geometry optimzed in LAMMPS
_audit_creation_date              2020-11-30 
_audit_creation_method            'lammps2cif' 
_symmetry_space_group_name_H-M    'P1' 
_symmetry_Int_Tables_number       1 
_symmetry_cell_setting            triclinic 
loop_ 
_symmetry_equiv_pos_as_xyz 
  x,y,z 
_cell_length_a                    49.01568383 
_cell_length_b                    48.84315987915553 
_cell_length_c                    39.844619476774376 
_cell_angle_alpha                 89.94065936233648 
_cell_angle_beta                  90.07418545529396 
_cell_angle_gamma                 119.9603793916468 
loop_ 
_atom_site_label 
_atom_site_type_symbol 
_atom_site_fract_x 
_atom_site_fract_y 
_atom_site_fract_z 
_atom_site_charge 
O1          O  0.22881953  0.37445786  0.97758476    -0.85500
O2          O  0.17988153  0.38370227  0.95900053    -0.82500
C3          C  0.15204411  0.37815759  0.95517341     0.98000
O4          O  0.13020833  0.35878523  0.97414915    -0.82600
O5          O  0.12203473  0.30093141  0.95516760    -0.85200
C6          C  0.12684757  0.27800982  0.95249740     1.02500
O7          O  0.14522606  0.27511710  0.97260838    -0.78000
O8          O  0.20364830  0.32640110  0.95710202    -0.78200
C9          C  0.22630745  0.35443200  0.95595809     1.02400
O10         O  0.21133530  0.37204459  0.04637794    -0.85500
O11         O  0.16629370  0.38723351  0.02854400    -0.82600
C12         C  0.14324153  0.37010690  0.04745183     0.98000
O13         O  0.12727956  0.34071857  0.04291426    -0.82600
O14         O  0.11398565  0.28135941  0.02481722    -0.85200
C15         C  0.13003924  0.27493160  0.04500574     1.02500
O16         O  0.15957183  0.28845252  0.04217863    -0.78000
O17         O  0.21972237  0.33477019  0.02745441    -0.78200
C18         C  0.22482946  0.35589436  0.04897793     1.02400
Cr19       Cr  0.19450171  0.37632498  0.00271858     1.93700
Cr20       Cr  0.12641935  0.32145200  0.99928054     1.93200
Cr21       Cr  0.18110810  0.30821975  0.99977224     1.39100
O22         O  0.16729115  0.33532921  0.00080889    -1.23200
O23         O  0.32166594  0.11863094  0.04253363    -0.85500
O24         O  0.27126467  0.12601927  0.02574792    -0.82500
C25         C  0.27450030  0.14665262  0.04693986     0.98000
O26         O  0.29702381  0.17457584  0.04444026    -0.82600
O27         O  0.35425281  0.22482030  0.02757554    -0.85200
C28         C  0.37347945  0.22237201  0.04680072     1.02500
O29         O  0.38009746  0.20079995  0.04228334    -0.78000
O30         O  0.37041568  0.14212115  0.02436690    -0.78200
C31         C  0.34957214  0.12414574  0.04511055     1.02400
O32         O  0.33236540  0.11204243  0.97281743    -0.85500
O33         O  0.28625604  0.12629157  0.95653192    -0.82600
C34         C  0.27294882  0.14259415  0.95392208     0.98000
O35         O  0.27910779  0.16477227  0.97442802    -0.82600
O36         O  0.33864441  0.21185177  0.95783955    -0.85200
C37         C  0.36806036  0.22512737  0.95374967     1.02500
O38         O  0.38457210  0.21837286  0.97281184    -0.78000
O39         O  0.36963542  0.15812258  0.95513449    -0.78200
C40         C  0.35427972  0.12847777  0.95234194     1.02400
Cr41       Cr  0.30500732  0.12382687  0.99941341     1.93700
Cr42       Cr  0.31821811  0.19195300  0.00096516     1.93200
Cr43       Cr  0.37308857  0.17881102  0.99868339     1.39100
O44         O  0.33215310  0.16495696  0.99944028    -1.23200
C45         C  0.47087757  0.50052397  0.25090568     0.02100
C46         C  0.47039411  0.47123666  0.25077626     0.02100
C47         C  0.99902529  0.47072833  0.25048555     0.02100
C48         C  0.02807334  0.49952145  0.25055047     0.02100
C49         C  0.02856868  0.02859710  0.25037663     0.02100
C50         C  0.99993844  0.02911443  0.25061575     0.02100
C51         C  0.40563060  0.01627009  0.22419519     0.03000
C52         C  0.43400036  0.01583017  0.22468348    -0.13200
C53         C  0.44060027  0.00071425  0.25081328     0.00500
C54         C  0.41843117  0.48596454  0.27625101    -0.11700
C55         C  0.38897602  0.48415002  0.27463334     0.03000
C56         C  0.38288592  0.99925809  0.24872154    -0.11100
H57         H  0.45144063  0.02789802  0.20531957     0.08600
H58         H  0.42398080  0.47530667  0.29707142     0.06100
H59         H  0.35992165  0.99722507  0.24674640     0.05900
C60         C  0.10843879  0.01343139  0.27702192     0.03000
C61         C  0.07998722  0.01362400  0.27707062    -0.13200
C62         C  0.05810945  0.99892670  0.25108835     0.00500
C63         C  0.06474147  0.48393421  0.22496165    -0.11700
C64         C  0.09228799  0.48210787  0.22567225     0.03000
C65         C  0.11409813  0.99678544  0.25201513    -0.11100
H66         H  0.07500119  0.02545644  0.29711850     0.08600
H67         H  0.04829419  0.47344201  0.20433118     0.06100
H68         H  0.13578283  0.99596232  0.25244722     0.05900
C69         C  0.11048604  0.09386677  0.22515297     0.03000
C70         C  0.08122208  0.06576342  0.22449795    -0.13200
C71         C  0.05923496  0.05877439  0.25037892     0.00500
C72         C  0.06656715  0.08012754  0.27688391    -0.11700
C73         C  0.09494331  0.10891361  0.27707355     0.03000
C74         C  0.11666278  0.11564674  0.25109779    -0.11100
H75         H  0.07574997  0.04878253  0.20452400     0.08600
H76         H  0.05001562  0.07423070  0.29735635     0.06100
H77         H  0.13830320  0.13821475  0.25081354     0.05900
C78         C  0.01530430  0.10995902  0.22231216     0.03000
C79         C  0.01537684  0.08131551  0.22359903    -0.13200
C80         C  0.00042195  0.05989263  0.24996290     0.00500
C81         C  0.48496977  0.06723574  0.27497609    -0.11700
C82         C  0.48348166  0.09508885  0.27313416     0.03000
C83         C  0.99903784  0.11661147  0.24702791    -0.11100
H84         H  0.02682469  0.07551203  0.20385654     0.08600
H85         H  0.47362061  0.05097505  0.29560900     0.06100
H86         H  0.99846097  0.13848885  0.24598626     0.05900
C87         C  0.38837480  0.40563408  0.22712415     0.03000
C88         C  0.38219489  0.38410495  0.25323508    -0.13200
C89         C  0.40461388  0.39072425  0.27840600     0.00500
C90         C  0.43310938  0.41943139  0.27773652    -0.11700
C91         C  0.43982201  0.44096516  0.25140678     0.03000
C92         C  0.41737168  0.43379839  0.22597911    -0.11100
H93         H  0.36005610  0.36196856  0.25367505     0.08600
H94         H  0.45016027  0.42500118  0.29766630     0.06100
H95         H  0.42250993  0.45008127  0.20529297     0.05900
C96         C  0.48473773  0.39004706  0.22259019     0.03000
C97         C  0.99897236  0.38275115  0.24905406    -0.13200
C98         C  0.01402131  0.40406905  0.27552683     0.00500
C99         C  0.01313207  0.43239521  0.27608762    -0.11700
C100        C  0.99870369  0.43997423  0.25008527     0.03000
C101        C  0.48501311  0.41894973  0.22315832    -0.11100
H102        H  0.99753274  0.35991686  0.24943216     0.08600
H103        H  0.02440185  0.44922222  0.29621527     0.06100
H104        H  0.47482375  0.42534384  0.20258396     0.05900
O105        O  0.35349406  0.12493142  0.52375399    -0.85500
O106        O  0.29634996  0.11878786  0.54191945    -0.82500
C107        C  0.27525609  0.12612705  0.54588978     0.98000
O108        O  0.27227490  0.14399656  0.52503577    -0.82600
O109        O  0.32148565  0.20119008  0.54268505    -0.85200
C110        C  0.34952015  0.22269582  0.54737865     1.02500
O111        O  0.37129196  0.22483444  0.52847453    -0.78000
O112        O  0.37747140  0.17322674  0.54334384    -0.78200
C113        C  0.37163597  0.14505269  0.54490285     1.02400
O114        O  0.33839096  0.12672413  0.45499031    -0.85500
O115        O  0.27875452  0.11350071  0.47248680    -0.82600
C116        C  0.27407289  0.13040863  0.45183254     0.98000
O117        O  0.28809715  0.15996399  0.45538574    -0.82600
O118        O  0.33404110  0.21932872  0.47368253    -0.85200
C119        C  0.35657791  0.22528193  0.45406857     1.02500
O120        O  0.37275048  0.21199111  0.45801685    -0.72800
O121        O  0.38451853  0.16409475  0.47273921    -0.78200
C122        C  0.36795771  0.14232781  0.45196448     1.02400
Cr123      Cr  0.31775420  0.12405246  0.49839587     1.93700
Cr124      Cr  0.30598533  0.17998233  0.49912131     1.93200
Cr125      Cr  0.37350131  0.19159806  0.50059702     1.39100
O126        O  0.33247838  0.16531179  0.49922203    -1.23200
O127        O  0.11974914  0.32138577  0.45664281    -0.85500
O128        O  0.12831425  0.27208599  0.47482149    -0.82500
C129        C  0.14924783  0.27390202  0.45501063     0.98000
O130        O  0.17741353  0.29572711  0.45807628    -0.82600
O131        O  0.22640165  0.35481250  0.47141126    -0.85200
C132        C  0.22269463  0.37219103  0.45046529     1.02500
O133        O  0.20105773  0.37873634  0.45444654    -0.78000
O134        O  0.14334360  0.37069766  0.47318334    -0.78200
C135        C  0.12459655  0.34912196  0.45359113     1.02400
O136        O  0.11481320  0.33392127  0.52642546    -0.85500
O137        O  0.12902967  0.28823564  0.54388875    -0.82600
C138        C  0.14557954  0.27534973  0.54796505     0.98000
O139        O  0.16835896  0.28172157  0.52847905    -0.82600
O140        O  0.21416504  0.34283924  0.54219246    -0.85200
C141        C  0.22770697  0.37254929  0.54404565     1.02500
O142        O  0.22081645  0.38789277  0.52339876    -0.78000
O143        O  0.16060838  0.37357533  0.54190828    -0.78200
C144        C  0.13118934  0.35694892  0.54580160     1.02400
Cr145      Cr  0.12615737  0.30607190  0.50038377     1.93700
Cr146      Cr  0.19447153  0.31985207  0.50009338     1.93200
Cr147      Cr  0.18051410  0.37454477  0.49834011     1.39100
O148        O  0.16704802  0.33342984  0.49980730    -1.23200
C149        C  0.02845272  0.49901236  0.74898185     0.02100
C150        C  0.49937699  0.47019336  0.74878691     0.02100
C151        C  0.47062374  0.47050140  0.74898142     0.02100
C152        C  0.47109477  0.49973880  0.74928830     0.02100
C153        C  0.50006984  0.02883609  0.75021413     0.02100
C154        C  0.02870340  0.02839026  0.75003525     0.02100
C155        C  0.11045814  0.01731333  0.72358325     0.03000
C156        C  0.11820163  0.50389249  0.75085344    -0.13200
C157        C  0.09619479  0.48692648  0.77598719     0.00500
C158        C  0.06668378  0.48512238  0.77502311    -0.11700
C159        C  0.05887025  0.49897877  0.74857387     0.03000
C160        C  0.08053075  0.01440689  0.72243059    -0.11100
H161        H  0.14175371  0.50735169  0.75275960     0.08600
H162        H  0.04963699  0.47290482  0.79470309     0.06100
H163        H  0.07417183  0.02436936  0.70158644     0.05900
C164        C  0.39015798  0.48526993  0.72420946     0.03000
C165        C  0.38389175  0.50030233  0.75058634    -0.13200
C166        C  0.40585376  0.01513720  0.77598581     0.00500
C167        C  0.43404543  0.01459309  0.77562887    -0.11700
C168        C  0.44094615  0.50004085  0.74935374     0.03000
C169        C  0.41885156  0.48552461  0.72342921    -0.11100
H170        H  0.36196079  0.50065726  0.75099175     0.08600
H171        H  0.45075782  0.02547183  0.79598501     0.06100
H172        H  0.42397356  0.47442658  0.70272716     0.05900
C173        C  0.01644558  0.11127780  0.77503995     0.03000
C174        C  0.50212055  0.11782999  0.74804059    -0.13200
C175        C  0.48654500  0.09557565  0.72241899     0.00500
C176        C  0.48654342  0.06687557  0.72338426    -0.11700
C177        C  0.50052812  0.05968798  0.75008248     0.03000
C178        C  0.01510884  0.08181356  0.77609264    -0.11100
H179        H  0.50282882  0.14031178  0.74720734     0.08600
H180        H  0.47493241  0.04949695  0.70379585     0.06100
H181        H  0.02595375  0.07624234  0.79668532     0.05900
C182        C  0.11050164  0.09332500  0.77494115     0.03000
C183        C  0.08116595  0.06548638  0.77583310    -0.13200
C184        C  0.05921718  0.05859139  0.74996804     0.00500
C185        C  0.06642115  0.08014593  0.72362003    -0.11700
C186        C  0.09507025  0.10862050  0.72319965     0.03000
C187        C  0.11726937  0.11478827  0.74848957    -0.11100
H188        H  0.07531572  0.04914397  0.79659100     0.08600
H189        H  0.04963676  0.07474420  0.70344594     0.06100
H190        H  0.13969464  0.13658641  0.74778914     0.05900
C191        C  0.01514217  0.40451773  0.72340244     0.03000
C192        C  0.01387972  0.43256064  0.72282462    -0.13200
C193        C  0.49913080  0.43964767  0.74877748     0.00500
C194        C  0.48432474  0.41783606  0.77480891    -0.11700
C195        C  0.48391976  0.38899728  0.77493033     0.03000
C196        C  0.00002858  0.38277075  0.74967758    -0.11100
H197        H  0.02434880  0.44901481  0.70217975     0.08600
H198        H  0.47301159  0.42329481  0.79499062     0.06100
H199        H  0.00044438  0.36081400  0.75038030     0.05900
C200        C  0.40311887  0.38863184  0.72582163     0.03000
C201        C  0.43145337  0.41772816  0.72420852    -0.13200
C202        C  0.43988954  0.44015718  0.74998627     0.00500
C203        C  0.41904532  0.43396518  0.77680633    -0.11700
C204        C  0.38999088  0.40577522  0.77808940     0.03000
C205        C  0.38285260  0.38288509  0.75313604    -0.11100
H206        H  0.44707443  0.42316913  0.70295795     0.08600
H207        H  0.42531224  0.45163033  0.79619420     0.06100
H208        H  0.36159641  0.36016815  0.75541566     0.05900
C209        C  0.13769620  0.25162999  0.57478453    -0.01400
C210        C  0.10869234  0.23849889  0.59135503    -0.09500
C211        C  0.10055663  0.21502502  0.61557983    -0.18300
C212        C  0.12141408  0.20398783  0.62419566     0.04100
C213        C  0.15103534  0.21777582  0.60764212     0.18300
C214        C  0.15881300  0.24123240  0.58321776    -0.19700
C215        C  0.17270969  0.20798358  0.61538292    -0.21000
C216        C  0.16561182  0.18466426  0.63928242    -0.19500
C217        C  0.13664304  0.17052557  0.65593733     0.19700
C218        C  0.11400758  0.17983322  0.64858447     0.01800
C219        C  0.08496188  0.16448214  0.66593705    -0.14300
C220        C  0.07884785  0.14113117  0.68967445    -0.12000
C221        C  0.10139283  0.13241650  0.69700425     0.01300
C222        C  0.13020241  0.14711755  0.68002337    -0.24100
H223        H  0.09192199  0.24605056  0.58522185     0.09300
H224        H  0.07775312  0.20600295  0.62699983     0.12900
H225        H  0.18142036  0.25137496  0.57066743     0.11600
H226        H  0.19532919  0.21843645  0.60285001     0.12800
H227        H  0.18289654  0.17759957  0.64474232     0.11900
H228        H  0.06648649  0.16996080  0.66185038     0.08900
H229        H  0.05655106  0.13019095  0.70284928     0.12200
H230        H  0.14757919  0.14016075  0.68549302     0.14100
C231        C  0.03155005  0.39764444  0.69621261    -0.01400
C232        C  0.01849203  0.36693950  0.68355206    -0.09500
C233        C  0.03378597  0.35972215  0.65867972    -0.18300
C234        C  0.06299844  0.38312818  0.64548552     0.04100
C235        C  0.07560036  0.41463361  0.65720322     0.18300
C236        C  0.06000560  0.42156384  0.68255445    -0.19700
C237        C  0.10371332  0.43889343  0.64364494    -0.21000
C238        C  0.11993667  0.43238701  0.61914058    -0.19500
C239        C  0.10870440  0.40137130  0.60798642     0.19700
C240        C  0.08005831  0.37631571  0.62109189     0.01800
C241        C  0.06991254  0.34533193  0.60964188    -0.14300
C242        C  0.08695284  0.33953942  0.58564898    -0.12000
C243        C  0.11488319  0.36417367  0.57243787     0.01300
C244        C  0.12589458  0.39510553  0.58387451    -0.24100
H245        H  0.99604111  0.34829373  0.69271214     0.09300
H246        H  0.02187240  0.33557677  0.65018876     0.12900
H247        H  0.07036306  0.44550223  0.69207393     0.11600
H248        H  0.11320411  0.46305709  0.65203748     0.12800
H249        H  0.14161946  0.45168032  0.60917729     0.11900
H250        H  0.04902505  0.32490048  0.61885232     0.08900
H251        H  0.07822648  0.31541470  0.57746875     0.12200
H252        H  0.14748165  0.41430617  0.57359840     0.14100
C253        C  0.36690597  0.46958753  0.69723873    -0.01400
C254        C  0.36163928  0.48761686  0.67365727    -0.09500
C255        C  0.33978564  0.47298952  0.64783505    -0.18300
C256        C  0.32215690  0.43962359  0.64515673     0.04100
C257        C  0.32760484  0.42152252  0.66950109     0.18300
C258        C  0.35004650  0.43661051  0.69501848    -0.19700
C259        C  0.31050784  0.38848583  0.66835066    -0.21000
C260        C  0.28804540  0.37289455  0.64350662    -0.19500
C261        C  0.28212969  0.38993476  0.61911471     0.19700
C262        C  0.29917575  0.42355630  0.61946712     0.01800
C263        C  0.29233591  0.43956588  0.59415601    -0.14300
C264        C  0.26932265  0.42293342  0.56990913    -0.12000
C265        C  0.25234509  0.38980716  0.56980900     0.01300
C266        C  0.25907854  0.37348287  0.59444957    -0.24100
H267        H  0.37472003  0.51318932  0.67511339     0.09300
H268        H  0.33713285  0.48846738  0.63054405     0.12900
H269        H  0.35421218  0.42273520  0.71346507     0.11600
H270        H  0.31440835  0.37459164  0.68693869     0.12800
H271        H  0.27514201  0.34728030  0.64341937     0.11900
H272        H  0.30429638  0.46495103  0.59238012     0.08900
H273        H  0.26482728  0.43621676  0.55108493     0.12200
H274        H  0.24618522  0.34785819  0.59463408     0.14100
C275        C  0.38691084  0.13569818  0.57063246    -0.01400
C276        C  0.39618257  0.11352801  0.56320382    -0.09500
C277        C  0.41203564  0.10566408  0.58704465    -0.18300
C278        C  0.41849150  0.11941346  0.61939137     0.04100
C279        C  0.40719961  0.14040167  0.62727674     0.18300
C280        C  0.39227283  0.14888896  0.60272618    -0.19700
C281        C  0.41080932  0.15278790  0.65963900    -0.21000
C282        C  0.42566795  0.14496968  0.68440883    -0.19500
C283        C  0.43840570  0.12564964  0.67702324     0.19700
C284        C  0.43553554  0.11301600  0.64427415     0.01800
C285        C  0.45057794  0.09530648  0.63769554    -0.14300
C286        C  0.46752258  0.09021578  0.66272687    -0.12000
C287        C  0.46940902  0.10185642  0.69535717     0.01300
C288        C  0.45439503  0.11928270  0.70222993    -0.24100
H289        H  0.39178996  0.10276624  0.53856149     0.09300
H290        H  0.41856190  0.08849535  0.57960946     0.12900
H291        H  0.38436065  0.16545987  0.60872066     0.11600
H292        H  0.40187828  0.16845263  0.66590310     0.12800
H293        H  0.42788797  0.15474544  0.70933558     0.11900
H294        H  0.45048614  0.08591804  0.61319766     0.08900
H295        H  0.47951918  0.07741312  0.65624082     0.12200
H296        H  0.45493868  0.12792091  0.72739718     0.14100
C297        C  0.25303301  0.11295892  0.57416448    -0.01400
C298        C  0.23512719  0.12673809  0.58389255    -0.09500
C299        C  0.21253239  0.11316923  0.60916464    -0.18300
C300        C  0.20677790  0.08490123  0.62511422     0.04100
C301        C  0.22583850  0.07171886  0.61579211     0.18300
C302        C  0.24891035  0.08601925  0.59092936    -0.19700
C303        C  0.22119640  0.04376286  0.63057861    -0.21000
C304        C  0.19739529  0.02799029  0.65386283    -0.19500
C305        C  0.17793431  0.04001193  0.66320814     0.19700
C306        C  0.18245105  0.06881731  0.64938080     0.01800
C307        C  0.16210140  0.07985173  0.66014058    -0.14300
C308        C  0.13842235  0.06294131  0.68371083    -0.12000
C309        C  0.13423245  0.03457549  0.69716756     0.01300
C310        C  0.15392668  0.02321011  0.68644322    -0.24100
H311        H  0.23840619  0.14801055  0.57169392     0.09300
H312        H  0.19956544  0.12499212  0.61512573     0.12900
H313        H  0.26285592  0.07537539  0.58368864     0.11600
H314        H  0.23571881  0.03370079  0.62362936     0.12800
H315        H  0.19407184  0.00610109  0.66452359     0.11900
H316        H  0.16400618  0.10152254  0.65104299     0.08900
H317        H  0.12378862  0.07246170  0.69194154     0.12200
H318        H  0.15055016  0.00101102  0.69625901     0.14100
C319        C  0.35662759  0.24622110  0.57434642    -0.01400
C320        C  0.33208815  0.24732365  0.59116987    -0.09500
C321        C  0.33838401  0.26999724  0.61584459    -0.18300
C322        C  0.36968470  0.29241878  0.62476563     0.04100
C323        C  0.39450139  0.29076312  0.60817996     0.18300
C324        C  0.38781205  0.26801024  0.58312229    -0.19700
C325        C  0.42588583  0.31182921  0.61669544    -0.21000
C326        C  0.43322870  0.33445193  0.64150597    -0.19500
C327        C  0.40940621  0.33696165  0.65804393     0.19700
C328        C  0.37729124  0.31627925  0.64962411     0.01800
C329        C  0.35427170  0.32064873  0.66620160    -0.14300
C330        C  0.36279911  0.34427808  0.69027878    -0.12000
C331        C  0.39445384  0.36413661  0.69924988     0.01300
C332        C  0.41761181  0.36018048  0.68291605    -0.24100
H333        H  0.30775250  0.23073381  0.58501747     0.09300
H334        H  0.31821135  0.26918420  0.62758997     0.12900
H335        H  0.40699638  0.26723286  0.57049317     0.11600
H336        H  0.44492556  0.31069544  0.60419664     0.12800
H337        H  0.45776137  0.35031875  0.64757314     0.11900
H338        H  0.32949314  0.30655299  0.66077716     0.08900
H339        H  0.34432952  0.34711501  0.70165722     0.12200
H340        H  0.44215214  0.37492926  0.68979099     0.14100
C341        C  0.10746006  0.35657020  0.42822118    -0.01400
C342        C  0.09751554  0.37812774  0.43597133    -0.09500
C343        C  0.08196203  0.38629912  0.41218999    -0.18300
C344        C  0.07645544  0.37357583  0.37941858     0.04100
C345        C  0.08742006  0.35232562  0.37141768     0.18300
C346        C  0.10200791  0.34337173  0.39606190    -0.19700
C347        C  0.08435697  0.34071773  0.33871542    -0.21000
C348        C  0.07090775  0.35002257  0.31366367    -0.19500
C349        C  0.05901905  0.37011837  0.32103140     0.19700
C350        C  0.06098405  0.38161842  0.35417189     0.01800
C351        C  0.04689509  0.40021618  0.36072873    -0.14300
C352        C  0.03162180  0.40717026  0.33542432    -0.12000
C353        C  0.03046420  0.39660094  0.30246088     0.01300
C354        C  0.04473065  0.37840079  0.29549024    -0.24100
H355        H  0.10167890  0.38864560  0.46072909     0.09300
H356        H  0.07532180  0.40327518  0.41999355     0.12900
H357        H  0.11019397  0.32705431  0.38989457     0.11600
H358        H  0.09289462  0.32474731  0.33233836     0.12800
H359        H  0.06928468  0.34098093  0.28846803     0.11900
H360        H  0.04633967  0.40889952  0.38541380     0.08900
H361        H  0.02009917  0.42038224  0.34209010     0.12200
H362        H  0.04471844  0.37047054  0.27010387     0.14100
C363        C  0.39867254  0.36706572  0.30461471    -0.01400
C364        C  0.42128586  0.35834022  0.31145961    -0.09500
C365        C  0.41534641  0.33484563  0.33494880    -0.18300
C366        C  0.38646340  0.31944982  0.35258235     0.04100
C367        C  0.36388078  0.32899456  0.34596605     0.18300
C368        C  0.37006827  0.35241433  0.32199316    -0.19700
C369        C  0.33528905  0.31518380  0.36334502    -0.21000
C370        C  0.32865647  0.29217335  0.38746370    -0.19500
C371        C  0.35030221  0.28218018  0.39446251     0.19700
C372        C  0.37931722  0.29525667  0.37680854     0.01800
C373        C  0.39985418  0.28352203  0.38423606    -0.14300
C374        C  0.39228365  0.26053315  0.40891642    -0.12000
C375        C  0.36416275  0.24860808  0.42699028     0.01300
C376        C  0.34312187  0.25926791  0.41928496    -0.24100
H377        H  0.44347459  0.36935028  0.29805760     0.09300
H378        H  0.43389531  0.32943146  0.33879928     0.12900
H379        H  0.35268412  0.35945764  0.31694434     0.11600
H380        H  0.31804554  0.32242580  0.35845174     0.12800
H381        H  0.30643383  0.28213176  0.40076510     0.11900
H382        H  0.42191706  0.29157137  0.37145439     0.08900
H383        H  0.40875495  0.25239385  0.41416395     0.12200
H384        H  0.32100396  0.24976054  0.43273771     0.14100
C385        C  0.38364944  0.13461573  0.42477409    -0.01400
C386        C  0.36652301  0.10817672  0.40413620    -0.09500
C387        C  0.38150472  0.10068774  0.37887636    -0.18300
C388        C  0.41428663  0.11967784  0.37325831     0.04100
C389        C  0.43135946  0.14683370  0.39380896     0.18300
C390        C  0.41609249  0.15378161  0.41937170    -0.19700
C391        C  0.46360382  0.16710393  0.38866141    -0.21000
C392        C  0.47935903  0.16119427  0.36328465    -0.19500
C393        C  0.46343823  0.13443195  0.34296312     0.19700
C394        C  0.43075861  0.11293332  0.34793671     0.01800
C395        C  0.41622994  0.08546154  0.32768110    -0.14300
C396        C  0.43346496  0.07978800  0.30354258    -0.12000
C397        C  0.46540181  0.10145582  0.29841944     0.01300
C398        C  0.48020853  0.12881155  0.31798327    -0.24100
H399        H  0.34139503  0.09304031  0.40760836     0.09300
H400        H  0.36674344  0.08010949  0.36395254     0.12900
H401        H  0.42958772  0.17445815  0.43495315     0.11600
H402        H  0.47670699  0.18787389  0.40421035     0.12800
H403        H  0.50429218  0.17749901  0.35978351     0.11900
H404        H  0.39178903  0.06767697  0.33027750     0.08900
H405        H  0.42176139  0.05843667  0.28861392     0.12200
H406        H  0.50508938  0.14532840  0.31428626     0.14100
C407        C  0.14050434  0.24968608  0.42872923    -0.01400
C408        C  0.10907036  0.23152627  0.41848901    -0.09500
C409        C  0.10038238  0.20828973  0.39396456    -0.18300
C410        C  0.12297942  0.20215383  0.37914122     0.04100
C411        C  0.15475523  0.22024389  0.39017945     0.18300
C412        C  0.16326342  0.24405611  0.41430756    -0.19700
C413        C  0.17780419  0.21420672  0.37741429    -0.21000
C414        C  0.16998289  0.19042601  0.35393918    -0.19500
C415        C  0.13909864  0.17270875  0.34200418     0.19700
C416        C  0.11517945  0.17853658  0.35407627     0.01800
C417        C  0.08461792  0.16071597  0.34023344    -0.14300
C418        C  0.07815795  0.13805516  0.31557237    -0.12000
C419        C  0.10175433  0.13221059  0.30408149     0.01300
C420        C  0.13210145  0.14942693  0.31766994    -0.24100
H421        H  0.09104158  0.23541516  0.42937491     0.09300
H422        H  0.07573706  0.19524494  0.38759482     0.12900
H423        H  0.18757718  0.25775427  0.42245738     0.11600
H424        H  0.20200963  0.22777426  0.38589625     0.12800
H425        H  0.18830998  0.18612155  0.34473854     0.11900
H426        H  0.06534722  0.16415963  0.34734760     0.08900
H427        H  0.05468390  0.12549999  0.30492388     0.12200
H428        H  0.15041886  0.14479557  0.30914360     0.14100
C429        C  0.25124967  0.11502325  0.42429614    -0.01400
C430        C  0.24035967  0.13176504  0.40528817    -0.09500
C431        C  0.21766913  0.11658943  0.38032034    -0.18300
C432        C  0.20522363  0.08403699  0.37354459     0.04100
C433        C  0.21726648  0.06754872  0.39218363     0.18300
C434        C  0.23986776  0.08303628  0.41724436    -0.19700
C435        C  0.20648337  0.03556279  0.38602638    -0.21000
C436        C  0.18351436  0.01928505  0.36197351    -0.19500
C437        C  0.17055987  0.03454170  0.34378533     0.19700
C438        C  0.18114855  0.06714299  0.34924071     0.01800
C439        C  0.16675831  0.08116956  0.33053235    -0.14300
C440        C  0.14284178  0.06348093  0.30757868    -0.12000
C441        C  0.13280484  0.03152742  0.30229961     0.01300
C442        C  0.14681015  0.01721632  0.32030553    -0.24100
H443        H  0.24902728  0.15659573  0.41007574     0.09300
H444        H  0.21030995  0.13096252  0.36689136     0.12900
H445        H  0.24852302  0.06998143  0.43146582     0.11600
H446        H  0.21577250  0.02298191  0.40005115     0.12800
H447        H  0.17554815  0.99447893  0.35786015     0.11900
H448        H  0.17323055  0.10562637  0.33321184     0.08900
H449        H  0.13242937  0.07493022  0.29347189     0.12200
H450        H  0.13845181  0.49215752  0.31626271     0.14100
C451        C  0.36422804  0.46626252  0.30004319    -0.01400
C452        C  0.36005261  0.43783253  0.31326940    -0.09500
C453        C  0.33611526  0.42049766  0.33635144    -0.18300
C454        C  0.31525501  0.43098009  0.34677943     0.04100
C455        C  0.31918549  0.45946063  0.33267851     0.18300
C456        C  0.34374561  0.47695757  0.31013503    -0.19700
C457        C  0.29868220  0.47047819  0.34124283    -0.21000
C458        C  0.27469888  0.45421399  0.36430614    -0.19500
C459        C  0.27098007  0.42683479  0.37975924     0.19700
C460        C  0.29099582  0.41460822  0.37103624     0.01800
C461        C  0.28639598  0.38706136  0.38771324    -0.14300
C462        C  0.26385694  0.37314890  0.41294573    -0.12000
C463        C  0.24481413  0.38580852  0.42204260     0.01300
C464        C  0.24793291  0.41216184  0.40469322    -0.24100
H465        H  0.37501822  0.42860053  0.30534942     0.09300
H466        H  0.33441051  0.39887472  0.34528199     0.12900
H467        H  0.34699942  0.49918984  0.30058797     0.11600
H468        H  0.30136480  0.49198391  0.33020539     0.12800
H469        H  0.25940844  0.46353498  0.37068613     0.11900
H470        H  0.30031467  0.37610935  0.38247428     0.08900
H471        H  0.26155534  0.35248127  0.42565996     0.12200
H472        H  0.23322375  0.42206142  0.41150695     0.14100
C473        C  0.40019811  0.03219531  0.80285945    -0.01400
C474        C  0.42004693  0.06478988  0.80624428    -0.09500
C475        C  0.41428788  0.08151722  0.83086609    -0.18300
C476        C  0.38846555  0.06584574  0.85305110     0.04100
C477        C  0.36967209  0.03237043  0.85066848     0.18300
C478        C  0.37543097  0.01595921  0.82538688    -0.19700
C479        C  0.34506669  0.01551747  0.87330267    -0.21000
C480        C  0.33809008  0.03128135  0.89779791    -0.19500
C481        C  0.35513097  0.06429182  0.89977055     0.19700
C482        C  0.38051285  0.08211482  0.87738151     0.01800
C483        C  0.39627807  0.11544950  0.87980986    -0.14300
C484        C  0.38747651  0.13036582  0.90379310    -0.12000
C485        C  0.36280283  0.11265521  0.92616536     0.01300
C486        C  0.34670025  0.07960042  0.92389578    -0.24100
H487        H  0.43976508  0.07742268  0.78931263     0.09300
H488        H  0.43048213  0.10658977  0.83193953     0.12900
H489        H  0.36068989  0.49080585  0.82310691     0.11600
H490        H  0.33081439  0.49041873  0.87159411     0.12800
H491        H  0.31881850  0.01757939  0.91492361     0.11900
H492        H  0.41521224  0.13069268  0.86326674     0.08900
H493        H  0.40018133  0.15594507  0.90485436     0.12200
H494        H  0.32744948  0.06563046  0.94096380     0.14100
C495        C  0.39939203  0.03454133  0.19858524    -0.01400
C496        C  0.38217539  0.04933530  0.20736252    -0.09500
C497        C  0.37392034  0.06457732  0.18332816    -0.18300
C498        C  0.38321271  0.06611970  0.14955916     0.04100
C499        C  0.40276011  0.05331017  0.14121259     0.18300
C500        C  0.41019058  0.03723069  0.16550268    -0.19700
C501        C  0.41457912  0.05645707  0.10862228    -0.21000
C502        C  0.40732961  0.07207638  0.08408482    -0.19500
C503        C  0.38711142  0.08379693  0.09125252     0.19700
C504        C  0.37410080  0.08025718  0.12389552     0.01800
C505        C  0.35190277  0.09028132  0.12922116    -0.14300
C506        C  0.34371794  0.10408622  0.10341203    -0.12000
C507        C  0.35778870  0.10886839  0.07185784     0.01300
C508        C  0.37945386  0.09870691  0.06584966    -0.24100
H509        H  0.37491058  0.04911765  0.23307185     0.09300
H510        H  0.36075457  0.07542123  0.19209028     0.12900
H511        H  0.42377038  0.02620660  0.15832052     0.11600
H512        H  0.42976160  0.04703667  0.10215058     0.12800
H513        H  0.41712213  0.07447818  0.05916518     0.11900
H514        H  0.33991557  0.08711598  0.15278697     0.08900
H515        H  0.32663138  0.11151103  0.10828468     0.12200
H516        H  0.38977951  0.10174935  0.04109682     0.14100
C517        C  0.13385268  0.10058136  0.80195214    -0.01400
C518        C  0.15049455  0.13121281  0.81497700    -0.09500
C519        C  0.17314795  0.13886459  0.83975178    -0.18300
C520        C  0.17992024  0.11591920  0.85257826     0.04100
C521        C  0.16304499  0.08478720  0.83925143     0.18300
C522        C  0.14006768  0.07734647  0.81434288    -0.19700
C523        C  0.16949006  0.06144841  0.85059083    -0.21000
C524        C  0.19269131  0.06851663  0.87465298    -0.19500
C525        C  0.20959783  0.09892960  0.88834899     0.19700
C526        C  0.20304394  0.12290946  0.87789698     0.01800
C527        C  0.21979171  0.15286490  0.89340558    -0.14300
C528        C  0.24234087  0.15888845  0.91785464    -0.12000
C529        C  0.24926810  0.13551761  0.92755195     0.01300
C530        C  0.23289423  0.10554375  0.91266633    -0.24100
H531        H  0.14582787  0.14944560  0.80608493     0.09300
H532        H  0.18509070  0.16308132  0.84799896     0.12900
H533        H  0.12750977  0.05365306  0.80405397     0.11600
H534        H  0.15674186  0.03767343  0.84052981     0.12800
H535        H  0.19735469  0.05003670  0.88269825     0.11900
H536        H  0.21585758  0.17214536  0.88759743     0.08900
H537        H  0.25461084  0.18217765  0.92912244     0.12200
H538        H  0.23783698  0.08718428  0.92048655     0.14100
C539        C  0.38381931  0.24935795  0.92717892    -0.01400
C540        C  0.36716741  0.26034577  0.90812095    -0.09500
C541        C  0.38234447  0.28339203  0.88330191    -0.18300
C542        C  0.41483958  0.29611580  0.87657149     0.04100
C543        C  0.43147193  0.28465116  0.89584063     0.18300
C544        C  0.41601108  0.26176966  0.92082736    -0.19700
C545        C  0.46348224  0.29590694  0.88999971    -0.21000
C546        C  0.47941635  0.31809498  0.86505188    -0.19500
C547        C  0.46384942  0.32992049  0.84559175     0.19700
C548        C  0.43143715  0.31951182  0.85132130     0.01800
C549        C  0.41722421  0.33309647  0.83157951    -0.14300
C550        C  0.43442778  0.35571958  0.80708595    -0.12000
C551        C  0.46609284  0.36524072  0.80115415     0.01300
C552        C  0.48065471  0.35224175  0.82045257    -0.24100
H553        H  0.34227876  0.25117882  0.91245769     0.09300
H554        H  0.36795975  0.29055897  0.86964320     0.12900
H555        H  0.42918802  0.25340796  0.93524408     0.11600
H556        H  0.47626736  0.28726449  0.90466569     0.12800
H557        H  0.50414078  0.32610922  0.86098759     0.11900
H558        H  0.39296562  0.32691073  0.83459814     0.08900
H559        H  0.42283179  0.36560087  0.79237019     0.12200
H560        H  0.50530283  0.35993927  0.81619702     0.14100
C561        C  0.25117888  0.13825198  0.07390553    -0.01400
C562        C  0.26079244  0.15091869  0.10603530    -0.09500
C563        C  0.23879069  0.14325210  0.13169383    -0.18300
C564        C  0.20622344  0.12321008  0.12562780     0.04100
C565        C  0.19657714  0.11136829  0.09255841     0.18300
C566        C  0.21909902  0.11819795  0.06736784    -0.19700
C567        C  0.16451942  0.09344007  0.08466273    -0.21000
C568        C  0.14175019  0.08743803  0.10883368    -0.19500
C569        C  0.15048642  0.09801862  0.14184133     0.19700
C570        C  0.18285187  0.11523087  0.15092320     0.01800
C571        C  0.19042504  0.12339902  0.18500733    -0.14300
C572        C  0.16690207  0.11589155  0.20877538    -0.12000
C573        C  0.13503477  0.10049309  0.19948284     0.01300
C574        C  0.12702637  0.09138077  0.16588908    -0.24100
H575        H  0.28552043  0.16664209  0.11139122     0.09300
H576        H  0.24791412  0.15413458  0.15571664     0.12900
H577        H  0.21159929  0.10885959  0.04225573     0.11600
H578        H  0.15700107  0.08458395  0.05942520     0.12800
H579        H  0.11712723  0.07407832  0.10176140     0.11900
H580        H  0.21428353  0.13495897  0.19423186     0.08900
H581        H  0.17380311  0.12201344  0.23474492     0.12200
H582        H  0.10252412  0.07938036  0.15827146     0.14100
C583        C  0.38878653  0.24585840  0.07385477    -0.01400
C584        C  0.37498015  0.26333762  0.08491731    -0.09500
C585        C  0.38978176  0.28704704  0.10884269    -0.18300
C586        C  0.41934120  0.29443606  0.12236929     0.04100
C587        C  0.43295000  0.27608330  0.11173580     0.18300
C588        C  0.41753424  0.25193189  0.08783428    -0.19700
C589        C  0.46199678  0.28219514  0.12475869    -0.21000
C590        C  0.47786991  0.30618174  0.14812804    -0.19500
C591        C  0.46513018  0.32471084  0.15897983     0.19700
C592        C  0.43579445  0.31928429  0.14608910     0.01800
C593        C  0.42423058  0.33900952  0.15750790    -0.14300
C594        C  0.44044405  0.36221561  0.18166357    -0.12000
C595        C  0.46891225  0.36693670  0.19501564     0.01300
C596        C  0.48142759  0.34847553  0.18295484    -0.24100
H597        H  0.35252020  0.25873504  0.07489011     0.09300
H598        H  0.37745984  0.29921623  0.11603362     0.12900
H599        H  0.42834113  0.23843618  0.07945595     0.11600
H600        H  0.47252004  0.26832552  0.11681160     0.12800
H601        H  0.50026300  0.31024165  0.15782973     0.11900
H602        H  0.40251688  0.33693246  0.14862671     0.08900
H603        H  0.43007746  0.37591486  0.19061549     0.12200
H604        H  0.50387094  0.35245449  0.19242697     0.14100
C605        C  0.03231276  0.13519319  0.80211600    -0.01400
C606        C  0.02951949  0.12593036  0.83582279    -0.09500
C607        C  0.04384532  0.14832064  0.86133482    -0.18300
C608        C  0.06146883  0.18101917  0.85399288     0.04100
C609        C  0.06365362  0.19037537  0.81986700     0.18300
C610        C  0.04957057  0.16758231  0.79444629    -0.19700
C611        C  0.07987711  0.22245621  0.81124205    -0.21000
C612        C  0.09409621  0.24557363  0.83580275    -0.19500
C613        C  0.09308764  0.23719083  0.86954603     0.19700
C614        C  0.07704000  0.20476282  0.87915154     0.01800
C615        C  0.07791604  0.19756542  0.91340256    -0.14300
C616        C  0.09432398  0.22149689  0.93687918    -0.12000
C617        C  0.10960048  0.25327856  0.92727103     0.01300
C618        C  0.10855927  0.26107094  0.89370509    -0.24100
H619        H  0.01570935  0.10121832  0.84263955     0.09300
H620        H  0.04030156  0.13928704  0.88659255     0.12900
H621        H  0.05229267  0.17517748  0.76849059     0.11600
H622        H  0.08147472  0.22974735  0.78527747     0.12800
H623        H  0.10639012  0.27019183  0.82827755     0.11900
H624        H  0.06674871  0.17368411  0.92273813     0.08900
H625        H  0.09483496  0.21515130  0.96285193     0.12200
H626        H  0.12066751  0.28573012  0.88625572     0.14100
C627        C  0.11394711  0.25064646  0.07127135    -0.01400
C628        C  0.13065773  0.23972464  0.09028693    -0.09500
C629        C  0.11546349  0.21626356  0.11453591    -0.18300
C630        C  0.08288505  0.20306978  0.12079646     0.04100
C631        C  0.06626805  0.21497844  0.10219009     0.18300
C632        C  0.08173736  0.23818567  0.07748169    -0.19700
C633        C  0.03435960  0.20388182  0.10855077    -0.21000
C634        C  0.01862585  0.18149902  0.13343266    -0.19500
C635        C  0.03418781  0.16900810  0.15189716     0.19700
C636        C  0.06632591  0.17896458  0.14526174     0.01800
C637        C  0.08036924  0.16418962  0.16326520    -0.14300
C638        C  0.06354945  0.14148646  0.18775100    -0.12000
C639        C  0.03240391  0.13296303  0.19525954     0.01300
C640        C  0.01774982  0.14655965  0.17701329    -0.24100
H641        H  0.15563702  0.24918224  0.08627181     0.09300
H642        H  0.12996507  0.20931641  0.12830145     0.12900
H643        H  0.06865509  0.24678905  0.06327045     0.11600
H644        H  0.02158609  0.21293483  0.09452055     0.12800
H645        H  0.49405201  0.17377473  0.13815328     0.11900
H646        H  0.10419248  0.16946660  0.15884111     0.08900
H647        H  0.07516557  0.13096655  0.20139157     0.12200
H648        H  0.49336382  0.13938906  0.18222140     0.14100
C649        C  0.14474295  0.39527817  0.92958696    -0.01400
C650        C  0.12363194  0.40572296  0.93728296    -0.09500
C651        C  0.11575493  0.42148816  0.91343762    -0.18300
C652        C  0.12831573  0.42670265  0.88063533     0.04100
C653        C  0.14908118  0.41518779  0.87264684     0.18300
C654        C  0.15770215  0.40031527  0.89734655    -0.19700
C655        C  0.16057407  0.41804188  0.83993022    -0.21000
C656        C  0.15159249  0.43178918  0.81486337    -0.19500
C657        C  0.13175352  0.44395369  0.82216886     0.19700
C658        C  0.12041986  0.44226347  0.85532084     0.01800
C659        C  0.10186537  0.45643415  0.86174275    -0.14300
C660        C  0.09423283  0.47093446  0.83614537    -0.12000
C661        C  0.10448736  0.47157602  0.80323495     0.01300
C662        C  0.12325645  0.45793760  0.79649431    -0.24100
H663        H  0.11328476  0.40184286  0.96208144     0.09300
H664        H  0.09915563  0.42856228  0.92125439     0.12900
H665        H  0.17363150  0.39168546  0.89121023     0.11600
H666        H  0.17619060  0.40911315  0.83356077     0.12800
H667        H  0.16048932  0.43320588  0.78964914     0.11900
H668        H  0.09342772  0.45733448  0.88643288     0.08900
H669        H  0.08062321  0.48215005  0.84236027     0.12200
H670        H  0.13118544  0.45799218  0.77109420     0.14100
C671        C  0.25077978  0.36385911  0.93022413    -0.01400
C672        C  0.28222159  0.38532864  0.93808635    -0.09500
C673        C  0.30581826  0.39375227  0.91413033    -0.18300
C674        C  0.29843063  0.38129739  0.88123891     0.04100
C675        C  0.26616532  0.36095998  0.87301309     0.18300
C676        C  0.24282264  0.35191125  0.89765311    -0.19700
C677        C  0.25736424  0.34981620  0.84023242    -0.21000
C678        C  0.27999914  0.35816021  0.81539472    -0.19500
C679        C  0.31202138  0.37684278  0.82305870     0.19700
C680        C  0.32179327  0.38834460  0.85617502     0.01800
C681        C  0.35448997  0.40562075  0.86290243    -0.14300
C682        C  0.37648005  0.41115390  0.83775380    -0.12000
C683        C  0.36672252  0.40021480  0.80496081     0.01300
C684        C  0.33435521  0.38354458  0.79781351    -0.24100
H685        H  0.28866837  0.39517150  0.96312038     0.09300
H686        H  0.32949999  0.41034177  0.92195899     0.12900
H687        H  0.21832344  0.33594971  0.89137049     0.11600
H688        H  0.23279182  0.33466976  0.83371834     0.12800
H689        H  0.27243936  0.34927391  0.79017235     0.11900
H690        H  0.36379890  0.41428588  0.88758538     0.08900
H691        H  0.40122653  0.42351343  0.84429354     0.12200
H692        H  0.32636757  0.37549360  0.77244913     0.14100
C693        C  0.13458034  0.38504137  0.07420204    -0.01400
C694        C  0.10437780  0.36960858  0.08822227    -0.09500
C695        C  0.09599608  0.38439476  0.11276776    -0.18300
C696        C  0.11786052  0.41511960  0.12422497     0.04100
C697        C  0.14862032  0.43033611  0.11013510     0.18300
C698        C  0.15656580  0.41531272  0.08536367    -0.19700
C699        C  0.17135808  0.46052738  0.12072949    -0.21000
C700        C  0.16425431  0.47616103  0.14513584    -0.19500
C701        C  0.13424224  0.46195753  0.15943564     0.19700
C702        C  0.11048068  0.43128895  0.14917455     0.01800
C703        C  0.08047036  0.41825671  0.16438258    -0.14300
C704        C  0.07459831  0.43488877  0.18900866    -0.12000
C705        C  0.09831915  0.46485720  0.19916830     0.01300
C706        C  0.12795174  0.47833696  0.18412369    -0.24100
H707        H  0.08698471  0.34618360  0.07982455     0.09300
H708        H  0.07228617  0.37114697  0.12221941     0.12900
H709        H  0.18010180  0.42725303  0.07479581     0.11600
H710        H  0.19483668  0.47213719  0.11007066     0.12800
H711        H  0.18290770  0.99878218  0.15464480     0.11900
H712        H  0.06110319  0.39530320  0.15795196     0.08900
H713        H  0.05153920  0.42407906  0.20054443     0.12200
H714        H  0.14645499  0.00112542  0.19284564     0.14100
C715        C  0.24768481  0.36216282  0.07630726    -0.01400
C716        C  0.25758290  0.34031233  0.08295117    -0.09500
C717        C  0.28004843  0.34619298  0.10757806    -0.18300
C718        C  0.29374381  0.37450142  0.12639079     0.04100
C719        C  0.28314732  0.39635621  0.12014177     0.18300
C720        C  0.26028449  0.39000496  0.09533595    -0.19700
C721        C  0.29559408  0.42449976  0.13852037    -0.21000
C722        C  0.31852642  0.43154639  0.16287901    -0.19500
C723        C  0.32976513  0.41074167  0.16926164     0.19700
C724        C  0.31757235  0.38190274  0.15108573     0.01800
C725        C  0.32997603  0.36185303  0.15824719    -0.14300
C726        C  0.35301618  0.36984368  0.18276486    -0.12000
C727        C  0.36468117  0.39808267  0.20064719     0.01300
C728        C  0.35320229  0.41859116  0.19371014    -0.24100
H729        H  0.24791615  0.31841408  0.06895791     0.09300
H730        H  0.28618352  0.32807460  0.11114383     0.12900
H731        H  0.25271010  0.40703914  0.09045588     0.11600
H732        H  0.28757383  0.44122312  0.13397513     0.12800
H733        H  0.32770242  0.45353583  0.17667065     0.11900
H734        H  0.32249450  0.33986400  0.14535734     0.08900
H735        H  0.36197306  0.35393765  0.18769345     0.12200
H736        H  0.36224499  0.44044453  0.20773764     0.14100
O737        O  0.22887864  0.87460923  0.97715771    -0.85500
O738        O  0.17997768  0.88391485  0.95874123    -0.82500
C739        C  0.15214842  0.87839156  0.95494766     0.98000
O740        O  0.13033410  0.85906434  0.97397558    -0.82600
O741        O  0.12214973  0.80116788  0.95510891    -0.85200
C742        C  0.12691528  0.77821101  0.95252530     1.02500
O743        O  0.14524893  0.77531732  0.97270254    -0.78000
O744        O  0.20360086  0.82646628  0.95690446    -0.78200
C745        C  0.22624529  0.85448857  0.95557610     1.02400
O746        O  0.21166657  0.87248130  0.04608805    -0.85500
O747        O  0.16656890  0.88762703  0.02837267    -0.82600
C748        C  0.14348912  0.87050721  0.04726642     0.98000
O749        O  0.12751173  0.84111862  0.04274796    -0.82600
O750        O  0.11417670  0.78170418  0.02482974    -0.85200
C751        C  0.13024383  0.77529527  0.04503254     1.02500
O752        O  0.15978447  0.78887721  0.04221872    -0.78000
O753        O  0.21994905  0.83512772  0.02722946    -0.78200
C754        C  0.22511829  0.85629508  0.04872698     1.02400
Cr755      Cr  0.19469395  0.87662986  0.00244354     1.93700
Cr756      Cr  0.12658168  0.82176554  0.99918099     1.93200
Cr757      Cr  0.18122272  0.80849011  0.99970446     1.39100
O758        O  0.16744970  0.83563413  0.00067495    -1.23200
O759        O  0.32219595  0.61910323  0.04232567    -0.85500
O760        O  0.27174687  0.62651483  0.02589647    -0.82500
C761        C  0.27503650  0.64713613  0.04714626     0.98000
O762        O  0.29756266  0.67506124  0.04461933    -0.82600
O763        O  0.35471210  0.72531519  0.02745375    -0.85200
C764        C  0.37390342  0.72282258  0.04667338     1.02500
O765        O  0.38050448  0.70124443  0.04214122    -0.78000
O766        O  0.37092437  0.64265756  0.02409046    -0.78200
C767        C  0.35012170  0.62466610  0.04484962     1.02400
O768        O  0.33271998  0.61261211  0.97255058    -0.85500
O769        O  0.28656481  0.62688918  0.95653812    -0.82600
C770        C  0.27314412  0.64310087  0.95413391     0.98000
O771        O  0.27936186  0.66524062  0.97470603    -0.82600
O772        O  0.33889117  0.71231296  0.95784779    -0.85200
C773        C  0.36830263  0.72557440  0.95367310     1.02500
O774        O  0.38487222  0.71887439  0.97270352    -0.78000
O775        O  0.37005910  0.65869005  0.95492999    -0.78200
C776        C  0.35469457  0.62904615  0.95213090     1.02400
Cr777      Cr  0.30541750  0.62434820  0.99932390     1.93700
Cr778      Cr  0.31859552  0.69243283  0.00103639     1.93200
Cr779      Cr  0.37349670  0.67933011  0.99850999     1.39100
O780        O  0.33255405  0.66545850  0.99936349    -1.23200
C781        C  0.47080878  0.00031366  0.25100923     0.02100
C782        C  0.47037137  0.97105754  0.25091728     0.02100
C783        C  0.99903483  0.97060176  0.25071436     0.02100
C784        C  0.02806493  0.99940005  0.25076608     0.02100
C785        C  0.02862970  0.52874791  0.25017545     0.02100
C786        C  0.00002106  0.52931994  0.25052944     0.02100
C787        C  0.40573352  0.51637605  0.22377641     0.03000
C788        C  0.43417395  0.51609035  0.22446434    -0.13200
C789        C  0.44068760  0.50093847  0.25061966     0.00500
C790        C  0.41846913  0.98587272  0.27658673    -0.11700
C791        C  0.38908589  0.98424896  0.27521206     0.03000
C792        C  0.38284027  0.49915563  0.24809464    -0.11100
H793        H  0.45171772  0.52828032  0.20522571     0.08600
H794        H  0.42407651  0.97521200  0.29735888     0.06100
H795        H  0.35982777  0.49698457  0.24593703     0.05900
C796        C  0.10847070  0.51354182  0.27672628     0.03000
C797        C  0.07996752  0.51364016  0.27687984    -0.13200
C798        C  0.05809954  0.49902926  0.25086190     0.00500
C799        C  0.06473053  0.98370371  0.22528816    -0.11700
C800        C  0.09221358  0.98174989  0.22613910     0.03000
C801        C  0.11421465  0.49711635  0.25152645    -0.11100
H802        H  0.07494074  0.52534921  0.29702618     0.08600
H803        H  0.04831286  0.97321489  0.20463576     0.06100
H804        H  0.13594761  0.49638074  0.25183084     0.05900
C805        C  0.11079024  0.59405375  0.22544089     0.03000
C806        C  0.08144886  0.56601364  0.22450752    -0.13200
C807        C  0.05933727  0.55889537  0.25031134     0.00500
C808        C  0.06659688  0.58007001  0.27696000    -0.11700
C809        C  0.09502089  0.60877300  0.27743187     0.03000
C810        C  0.11692947  0.61561323  0.25162330    -0.11100
H811        H  0.07601760  0.54918806  0.20437630     0.08600
H812        H  0.04994289  0.57410762  0.29734376     0.06100
H813        H  0.13865789  0.63810701  0.25163919     0.05900
C814        C  0.01555607  0.61029909  0.22244133     0.03000
C815        C  0.01562724  0.58165779  0.22371312    -0.13200
C816        C  0.00054251  0.56014335  0.24997543     0.00500
C817        C  0.48500411  0.56745268  0.27493700    -0.11700
C818        C  0.48355899  0.59534775  0.27314032     0.03000
C819        C  0.99919991  0.61690734  0.24709312    -0.11100
H820        H  0.02715299  0.57591697  0.20400146     0.08600
H821        H  0.47357326  0.55114246  0.29551056     0.06100
H822        H  0.99862311  0.63878421  0.24602313     0.05900
C823        C  0.38838118  0.90545018  0.22715435     0.03000
C824        C  0.38228517  0.88380505  0.25312610    -0.13200
C825        C  0.40473897  0.89039085  0.27825122     0.00500
C826        C  0.43316895  0.91914361  0.27768363    -0.11700
C827        C  0.43981882  0.94077097  0.25147607     0.03000
C828        C  0.41734158  0.93365986  0.22608714    -0.11100
H829        H  0.36017655  0.86163694  0.25352507     0.08600
H830        H  0.45021538  0.92467884  0.29761155     0.06100
H831        H  0.42243187  0.95001422  0.20548354     0.05900
C832        C  0.48480391  0.89000453  0.22277772     0.03000
C833        C  0.99896378  0.88264559  0.24926367    -0.13200
C834        C  0.01405982  0.90395933  0.27571798     0.00500
C835        C  0.01319898  0.93230105  0.27629972    -0.11700
C836        C  0.99876171  0.93988706  0.25031601     0.03000
C837        C  0.48511960  0.91891488  0.22335734    -0.11100
H838        H  0.99745640  0.85978166  0.24965636     0.08600
H839        H  0.02448946  0.94913232  0.29641740     0.06100
H840        H  0.47500350  0.92537421  0.20276682     0.05900
O841        O  0.35346066  0.62489146  0.52422581    -0.85500
O842        O  0.29626773  0.61874221  0.54214910    -0.82500
C843        C  0.27510676  0.62600636  0.54597158     0.98000
O844        O  0.27206298  0.64372488  0.52496545    -0.82600
O845        O  0.32110029  0.70104830  0.54267888    -0.85200
C846        C  0.34912084  0.72257283  0.54742440     1.02500
O847        O  0.37098363  0.72464876  0.52872313    -0.78000
O848        O  0.37734733  0.67319229  0.54374864    -0.78200
C849        C  0.37158253  0.64504534  0.54536832     1.02400
O850        O  0.33846455  0.62658694  0.45538171    -0.85500
O851        O  0.27873925  0.61322162  0.47263178    -0.82600
C852        C  0.27406072  0.63006867  0.45188094     0.98000
O853        O  0.28810649  0.65963933  0.45534852    -0.82600
O854        O  0.33386883  0.71912657  0.47376967    -0.85200
C855        C  0.35663342  0.72532263  0.45441045     1.02500
O856        O  0.37276751  0.71198929  0.45836018    -0.72800
O857        O  0.38454465  0.66407933  0.47311387    -0.78200
C858        C  0.36802484  0.64229292  0.45233478     1.02400
Cr859      Cr  0.31773454  0.62392559  0.49870324     1.93700
Cr860      Cr  0.30580150  0.67974262  0.49912114     1.93200
Cr861      Cr  0.37339375  0.69151568  0.50093274     1.39100
O862        O  0.33238328  0.66517293  0.49943561    -1.23200
O863        O  0.11947834  0.82101137  0.45682950    -0.85500
O864        O  0.12780461  0.77166556  0.47533725    -0.82500
C865        C  0.14867748  0.77342756  0.45548554     0.98000
O866        O  0.17684888  0.79526348  0.45844297    -0.82600
O867        O  0.22594780  0.85435964  0.47150991    -0.85200
C868        C  0.22236000  0.87187951  0.45064343     1.02500
O869        O  0.20073391  0.87844383  0.45460306    -0.78000
O870        O  0.14300543  0.87034350  0.47333110    -0.78200
C871        C  0.12429467  0.84872902  0.45374938     1.02400
O872        O  0.11450297  0.83382287  0.52644046    -0.85500
O873        O  0.12864205  0.78819194  0.54428734    -0.82600
C874        C  0.14519113  0.77532358  0.54848330     0.98000
O875        O  0.16790402  0.78153238  0.52894549    -0.82600
O876        O  0.21389652  0.84263859  0.54234315    -0.85200
C877        C  0.22752123  0.87235905  0.54406622     1.02500
O878        O  0.22054169  0.88766612  0.52347222    -0.78000
O879        O  0.16031843  0.87332591  0.54207182    -0.78200
C880        C  0.13087979  0.85679368  0.54586560     1.02400
Cr881      Cr  0.12578840  0.80583132  0.50065997     1.93700
Cr882      Cr  0.19404716  0.81951680  0.50035533     1.93200
Cr883      Cr  0.18019642  0.87426782  0.49849161     1.39100
O884        O  0.16669229  0.83315165  0.50003235    -1.23200
C885        C  0.02841682  0.99926812  0.74898322     0.02100
C886        C  0.49934966  0.97044985  0.74870359     0.02100
C887        C  0.47057924  0.97071728  0.74884347     0.02100
C888        C  0.47103267  0.99994071  0.74915683     0.02100
C889        C  0.50015484  0.52862716  0.75033806     0.02100
C890        C  0.02878136  0.52815940  0.75004881     0.02100
C891        C  0.11057310  0.51725755  0.72383421     0.03000
C892        C  0.11807058  0.00384154  0.75050995    -0.13200
C893        C  0.09614354  0.98701931  0.77575370     0.00500
C894        C  0.06669809  0.98537188  0.77494982    -0.11700
C895        C  0.05885678  0.99924940  0.74853595     0.03000
C896        C  0.08058461  0.51418362  0.72252850    -0.11100
H897        H  0.14156279  0.00711938  0.75227142     0.08600
H898        H  0.04972609  0.97324054  0.79471980     0.06100
H899        H  0.07421639  0.52409090  0.70163961     0.05900
C900        C  0.39019544  0.98545092  0.72381214     0.03000
C901        C  0.38372431  0.00026689  0.75025019    -0.13200
C902        C  0.40611374  0.51520525  0.77622708     0.00500
C903        C  0.43424871  0.51455684  0.77580996    -0.11700
C904        C  0.44088539  0.00022180  0.74914178     0.03000
C905        C  0.41893859  0.98583022  0.72308334    -0.11100
H906        H  0.36174054  0.00051814  0.75060599     0.08600
H907        H  0.45102885  0.52546480  0.79610312     0.06100
H908        H  0.42418326  0.97485617  0.70235337     0.05900
C909        C  0.01696985  0.61123794  0.77515185     0.03000
C910        C  0.50270941  0.61786731  0.74814340    -0.13200
C911        C  0.48692773  0.59558217  0.72259558     0.00500
C912        C  0.48670040  0.56676621  0.72362488    -0.11700
C913        C  0.50066765  0.55951476  0.75028852     0.03000
C914        C  0.01540134  0.58166448  0.77625256    -0.11100
H915        H  0.50362813  0.64044299  0.74725462     0.08600
H916        H  0.47495703  0.54935415  0.70410152     0.06100
H917        H  0.02622049  0.57603605  0.79682438     0.05900
C918        C  0.11034929  0.59328990  0.77546304     0.03000
C919        C  0.08120805  0.56522121  0.77600146    -0.13200
C920        C  0.05931523  0.55837822  0.75007858     0.00500
C921        C  0.06647760  0.58014944  0.72394311    -0.11700
C922        C  0.09494640  0.60882000  0.72388836     0.03000
C923        C  0.11702575  0.61500001  0.74931086    -0.11100
H924        H  0.07544043  0.54872427  0.79659466     0.08600
H925        H  0.04976851  0.57480083  0.70370235     0.06100
H926        H  0.13929541  0.63698408  0.74894969     0.05900
C927        C  0.01510860  0.90484207  0.72320470     0.03000
C928        C  0.01384363  0.93287567  0.72266166    -0.13200
C929        C  0.49912730  0.93994033  0.74865429     0.00500
C930        C  0.48438928  0.91815235  0.77470635    -0.11700
C931        C  0.48400798  0.88932623  0.77480438     0.03000
C932        C  0.00008366  0.88310943  0.74949700    -0.11100
H933        H  0.02427272  0.94932972  0.70200841     0.08600
H934        H  0.47311098  0.92362443  0.79491455     0.06100
H935        H  0.00050797  0.86115616  0.75014621     0.05900
C936        C  0.40298741  0.88909898  0.72504353     0.03000
C937        C  0.43145723  0.91808160  0.72373369    -0.13200
C938        C  0.43983835  0.94035637  0.74966767     0.00500
C939        C  0.41886369  0.93405105  0.77639263    -0.11700
C940        C  0.38972492  0.90591900  0.77740771     0.03000
C941        C  0.38258976  0.88323468  0.75223983    -0.11100
H942        H  0.44718187  0.92355558  0.70257018     0.08600
H943        H  0.42509548  0.95159037  0.79591511     0.06100
H944        H  0.36123000  0.86056609  0.75424160     0.05900
C945        C  0.13739845  0.75182202  0.57552207    -0.01400
C946        C  0.10858154  0.73902636  0.59244007    -0.09500
C947        C  0.10053149  0.71570495  0.61684101    -0.18300
C948        C  0.12128681  0.70449078  0.62526442     0.04100
C949        C  0.15079274  0.71808406  0.60849334     0.18300
C950        C  0.15846381  0.74134836  0.58387939    -0.19700
C951        C  0.17246955  0.70829229  0.61620226    -0.21000
C952        C  0.16547049  0.68512480  0.64024886    -0.19500
C953        C  0.13654353  0.67103920  0.65697508     0.19700
C954        C  0.11389522  0.68033774  0.64965344     0.01800
C955        C  0.08480959  0.66487978  0.66692805    -0.14300
C956        C  0.07867760  0.64143014  0.69056011    -0.12000
C957        C  0.10126541  0.63277242  0.69788742     0.01300
C958        C  0.13011970  0.64760924  0.68101484    -0.24100
H959        H  0.09189148  0.74671641  0.58644642     0.09300
H960        H  0.07789720  0.70696009  0.62858238     0.12900
H961        H  0.18095573  0.75128197  0.57111901     0.11600
H962        H  0.19501821  0.71863272  0.60353451     0.12800
H963        H  0.18275973  0.67806127  0.64568733     0.11900
H964        H  0.06628153  0.67027067  0.66275915     0.08900
H965        H  0.05632838  0.63033787  0.70361947     0.12200
H966        H  0.14751263  0.64066665  0.68646149     0.14100
C967        C  0.03139761  0.89793104  0.69595185    -0.01400
C968        C  0.01822783  0.86722585  0.68328096    -0.09500
C969        C  0.03342696  0.85994560  0.65837325    -0.18300
C970        C  0.06267114  0.88328572  0.64517855     0.04100
C971        C  0.07543876  0.91478077  0.65699922     0.18300
C972        C  0.05988906  0.92178825  0.68232175    -0.19700
C973        C  0.10371174  0.93894175  0.64363537    -0.21000
C974        C  0.12000224  0.93233360  0.61931771    -0.19500
C975        C  0.10857061  0.90133274  0.60801968     0.19700
C976        C  0.07965879  0.87640105  0.62077333     0.01800
C977        C  0.06916782  0.84546327  0.60894757    -0.14300
C978        C  0.08624560  0.83958606  0.58509587    -0.12000
C979        C  0.11453091  0.86408197  0.57237328     0.01300
C980        C  0.12580789  0.89496923  0.58407553    -0.24100
H981        H  0.99577689  0.84862045  0.69249003     0.09300
H982        H  0.02145793  0.83578091  0.64995677     0.12900
H983        H  0.07033873  0.94571630  0.69189613     0.11600
H984        H  0.11331263  0.96309518  0.65209134     0.12800
H985        H  0.14186398  0.95153914  0.60957746     0.11900
H986        H  0.04794468  0.82512831  0.61768752     0.08900
H987        H  0.07725029  0.81549779  0.57663169     0.12200
H988        H  0.14763303  0.91407280  0.57411365     0.14100
C989        C  0.36707769  0.96974076  0.69676653    -0.01400
C990        C  0.36313719  0.98770527  0.67198605    -0.09500
C991        C  0.34139550  0.97299302  0.64608240    -0.18300
C992        C  0.32260814  0.93963587  0.64450208     0.04100
C993        C  0.32697129  0.92161655  0.66986666     0.18300
C994        C  0.34920535  0.93676676  0.69553887    -0.19700
C995        C  0.30902698  0.88860329  0.66955819    -0.21000
C996        C  0.28671702  0.87295033  0.64460287    -0.19500
C997        C  0.28164668  0.88991090  0.61939965     0.19700
C998        C  0.29953011  0.92350742  0.61891603     0.01800
C999        C  0.29326932  0.93943835  0.59301833    -0.14300
C1000       C  0.27006186  0.92276042  0.56896217    -0.12000
C1001       C  0.25236057  0.88966504  0.56961073     0.01300
C1002       C  0.25851360  0.87340889  0.59483339    -0.24100
H1003       H  0.37713273  0.01326974  0.67259720     0.09300
H1004       H  0.33981865  0.98839916  0.62779470     0.12900
H1005       H  0.35248637  0.92295646  0.71481952     0.11600
H1006       H  0.31216152  0.87478052  0.68887607     0.12800
H1007       H  0.27316366  0.84735808  0.64515551     0.11900
H1008       H  0.30572915  0.96479861  0.59072993     0.08900
H1009       H  0.26598833  0.93597820  0.54969335     0.12200
H1010       H  0.24500553  0.84780915  0.59563297     0.14100
C1011       C  0.38695845  0.63577141  0.57111880    -0.01400
C1012       C  0.39574064  0.61319078  0.56388328    -0.09500
C1013       C  0.41168850  0.60537611  0.58766098    -0.18300
C1014       C  0.41875523  0.61959519  0.61977811     0.04100
C1015       C  0.40799055  0.64104019  0.62752054     0.18300
C1016       C  0.39295550  0.64946275  0.60301121    -0.19700
C1017       C  0.41221508  0.65392632  0.65970767    -0.21000
C1018       C  0.42711920  0.64611570  0.68444060    -0.19500
C1019       C  0.43931549  0.62630312  0.67717088     0.19700
C1020       C  0.43587975  0.61320624  0.64458149     0.01800
C1021       C  0.45045038  0.59504031  0.63806717    -0.14300
C1022       C  0.46744857  0.58992631  0.66302375    -0.12000
C1023       C  0.46982549  0.60196623  0.69554944     0.01300
C1024       C  0.45530363  0.61988135  0.70233764    -0.24100
H1025       H  0.39088281  0.60204366  0.53942178     0.09300
H1026       H  0.41779302  0.58786241  0.58037171     0.12900
H1027       H  0.38545163  0.66637395  0.60889586     0.11600
H1028       H  0.40370471  0.66995818  0.66587681     0.12800
H1029       H  0.42979056  0.65626503  0.70923941     0.11900
H1030       H  0.44994637  0.58529999  0.61365809     0.08900
H1031       H  0.47908183  0.57676975  0.65654594     0.12200
H1032       H  0.45619505  0.62884430  0.72741377     0.14100
C1033       C  0.25290231  0.61292007  0.57425771    -0.01400
C1034       C  0.23462141  0.62639864  0.58358083    -0.09500
C1035       C  0.21208916  0.61287863  0.60891495    -0.18300
C1036       C  0.20678580  0.58496072  0.62533207     0.04100
C1037       C  0.22620342  0.57208719  0.61638582     0.18300
C1038       C  0.24921280  0.58635423  0.59147343    -0.19700
C1039       C  0.22196324  0.54443801  0.63157391    -0.21000
C1040       C  0.19816170  0.52861119  0.65483641    -0.19500
C1041       C  0.17835282  0.54032224  0.66381478     0.19700
C1042       C  0.18253700  0.56889111  0.64966991     0.01800
C1043       C  0.16195505  0.57971202  0.66020464    -0.14300
C1044       C  0.13832236  0.56278500  0.68380706    -0.12000
C1045       C  0.13438162  0.53458617  0.69747793     0.01300
C1046       C  0.15432760  0.52344478  0.68699765    -0.24100
H1047       H  0.23754969  0.64738277  0.57101481     0.09300
H1048       H  0.19878717  0.62442624  0.61452361     0.12900
H1049       H  0.26344917  0.57594732  0.58454706     0.11600
H1050       H  0.23677012  0.53462376  0.62491673     0.12800
H1051       H  0.19511936  0.50692871  0.66577714     0.11900
H1052       H  0.16366443  0.60124876  0.65093739     0.08900
H1053       H  0.12351765  0.57216147  0.69187823     0.12200
H1054       H  0.15113451  0.50136000  0.69695486     0.14100
C1055       C  0.35617280  0.74623952  0.57418621    -0.01400
C1056       C  0.33166418  0.74785711  0.59043363    -0.09500
C1057       C  0.33801612  0.77074121  0.61487908    -0.18300
C1058       C  0.36933235  0.79282846  0.62413256     0.04100
C1059       C  0.39408574  0.79063464  0.60811438     0.18300
C1060       C  0.38734982  0.76770690  0.58327746    -0.19700
C1061       C  0.42546144  0.81132528  0.61698211    -0.21000
C1062       C  0.43285921  0.83408709  0.64163110    -0.19500
C1063       C  0.40911440  0.83710978  0.65764204     0.19700
C1064       C  0.37701760  0.81684393  0.64881151     0.01800
C1065       C  0.35410450  0.82174911  0.66483944    -0.14300
C1066       C  0.36270483  0.84541799  0.68887815    -0.12000
C1067       C  0.39430967  0.86478009  0.69831697     0.01300
C1068       C  0.41737827  0.86039601  0.68243494    -0.24100
H1069       H  0.30733525  0.73152900  0.58398827     0.09300
H1070       H  0.31787794  0.77034744  0.62619906     0.12900
H1071       H  0.40649848  0.76652232  0.57108325     0.11600
H1072       H  0.44444558  0.80977427  0.60490261     0.12800
H1073       H  0.45737752  0.84964915  0.64799523     0.11900
H1074       H  0.32937196  0.80802495  0.65903795     0.08900
H1075       H  0.34435124  0.84865673  0.69991809     0.12200
H1076       H  0.44187000  0.87482008  0.68966282     0.14100
C1077       C  0.10710922  0.85608843  0.42841352    -0.01400
C1078       C  0.09685703  0.87736496  0.43629677    -0.09500
C1079       C  0.08132470  0.88554454  0.41252256    -0.18300
C1080       C  0.07613937  0.87310301  0.37963489     0.04100
C1081       C  0.08724946  0.85198121  0.37157255     0.18300
C1082       C  0.10187444  0.84306026  0.39619228    -0.19700
C1083       C  0.08427472  0.84045433  0.33884647    -0.21000
C1084       C  0.07077343  0.84971962  0.31381804    -0.19500
C1085       C  0.05887472  0.86980466  0.32120367     0.19700
C1086       C  0.06081360  0.88127652  0.35435445     0.01800
C1087       C  0.04690539  0.90004459  0.36087120    -0.14300
C1088       C  0.03172874  0.90709281  0.33556177    -0.12000
C1089       C  0.03048209  0.89644848  0.30262427     0.01300
C1090       C  0.04463667  0.87814149  0.29566002    -0.24100
H1091       H  0.10078341  0.88767056  0.46114730     0.09300
H1092       H  0.07441770  0.90227690  0.42047026     0.12900
H1093       H  0.11024420  0.82690132  0.38997223     0.11600
H1094       H  0.09288892  0.82455176  0.33244257     0.12800
H1095       H  0.06917794  0.84070955  0.28861196     0.11900
H1096       H  0.04644843  0.90885226  0.38551165     0.08900
H1097       H  0.02033223  0.92042564  0.34221970     0.12200
H1098       H  0.04459497  0.87019017  0.27027666     0.14100
C1099       C  0.39884176  0.86676783  0.30446604    -0.01400
C1100       C  0.42138144  0.85791448  0.31118986    -0.09500
C1101       C  0.41555217  0.83464674  0.33493975    -0.18300
C1102       C  0.38687131  0.81964319  0.35296775     0.04100
C1103       C  0.36435367  0.82928601  0.34639360     0.18300
C1104       C  0.37042156  0.85245624  0.32215923    -0.19700
C1105       C  0.33593564  0.81581978  0.36406756    -0.21000
C1106       C  0.32935397  0.79297004  0.38835487    -0.19500
C1107       C  0.35089199  0.78282197  0.39526538     0.19700
C1108       C  0.37981486  0.79567931  0.37746023     0.01800
C1109       C  0.40031704  0.78391829  0.38496630    -0.14300
C1110       C  0.39265497  0.76088233  0.40961747    -0.12000
C1111       C  0.36448981  0.74895777  0.42761037     0.01300
C1112       C  0.34363432  0.75988441  0.42006791    -0.24100
H1113       H  0.44343207  0.86868364  0.29753692     0.09300
H1114       H  0.43401321  0.82908204  0.33865759     0.12900
H1115       H  0.35310660  0.85960790  0.31718181     0.11600
H1116       H  0.31875967  0.82316065  0.35922057     0.12800
H1117       H  0.30722638  0.78313134  0.40181442     0.11900
H1118       H  0.42239837  0.79194372  0.37223291     0.08900
H1119       H  0.40904633  0.75263732  0.41484012     0.12200
H1120       H  0.32154141  0.75048355  0.43355049     0.14100
C1121       C  0.38373294  0.63468329  0.42506889    -0.01400
C1122       C  0.36661062  0.60826510  0.40439921    -0.09500
C1123       C  0.38157368  0.60085760  0.37904742    -0.18300
C1124       C  0.41433435  0.61991003  0.37335690     0.04100
C1125       C  0.43139227  0.64708722  0.39388553     0.18300
C1126       C  0.41614858  0.65394563  0.41956249    -0.19700
C1127       C  0.46359556  0.66746182  0.38859724    -0.21000
C1128       C  0.47932202  0.66161735  0.36312642    -0.19500
C1129       C  0.46343168  0.63479327  0.34287635     0.19700
C1130       C  0.43079846  0.61319896  0.34798722     0.01800
C1131       C  0.41631875  0.58564478  0.32785064    -0.14300
C1132       C  0.43355600  0.57997164  0.30370209    -0.12000
C1133       C  0.46545178  0.60172778  0.29842826     0.01300
C1134       C  0.48019659  0.62918556  0.31786293    -0.24100
H1135       H  0.34149587  0.59307783  0.40791605     0.09300
H1136       H  0.36681325  0.58029617  0.36409955     0.12900
H1137       H  0.42963261  0.67462597  0.43514245     0.11600
H1138       H  0.47668775  0.68826034  0.40410998     0.12800
H1139       H  0.50422198  0.67800244  0.35952327     0.11900
H1140       H  0.39192128  0.56777727  0.33058011     0.08900
H1141       H  0.42188268  0.55854194  0.28888781     0.12200
H1142       H  0.50504294  0.64578099  0.31407041     0.14100
C1143       C  0.13990045  0.74913944  0.42930503    -0.01400
C1144       C  0.10856922  0.73135130  0.41860285    -0.09500
C1145       C  0.09992550  0.70808260  0.39410709    -0.18300
C1146       C  0.12245548  0.70153875  0.37982872     0.04100
C1147       C  0.15408779  0.71921945  0.39141233     0.18300
C1148       C  0.16256537  0.74307712  0.41545378    -0.19700
C1149       C  0.17703603  0.71275206  0.37926351    -0.21000
C1150       C  0.16928271  0.68899888  0.35578720    -0.19500
C1151       C  0.13859113  0.67175219  0.34322727     0.19700
C1152       C  0.11475067  0.67794895  0.35475362     0.01800
C1153       C  0.08439365  0.66054709  0.34033566    -0.14300
C1154       C  0.07808123  0.63800028  0.31558152    -0.12000
C1155       C  0.10163112  0.63188032  0.30456483     0.01300
C1156       C  0.13173842  0.64861493  0.31876820    -0.24100
H1157       H  0.09061961  0.73558755  0.42907618     0.09300
H1158       H  0.07536878  0.69534610  0.38730880     0.12900
H1159       H  0.18677992  0.75647650  0.42399843     0.11600
H1160       H  0.20111587  0.72598794  0.38820237     0.12800
H1161       H  0.18753418  0.68438080  0.34703851     0.11900
H1162       H  0.06520034  0.66425624  0.34705904     0.08900
H1163       H  0.05478555  0.62576144  0.30447304     0.12200
H1164       H  0.14998881  0.64374414  0.31058393     0.14100
C1165       C  0.25118874  0.61462760  0.42435722    -0.01400
C1166       C  0.24068773  0.63150708  0.40499506    -0.09500
C1167       C  0.21796212  0.61636444  0.38005041    -0.18300
C1168       C  0.20507633  0.58369564  0.37362870     0.04100
C1169       C  0.21675281  0.56704340  0.39256590     0.18300
C1170       C  0.23937339  0.58249677  0.41764837    -0.19700
C1171       C  0.20562359  0.53495287  0.38663051    -0.21000
C1172       C  0.18275298  0.51877690  0.36243646    -0.19500
C1173       C  0.17015129  0.53421085  0.34396040     0.19700
C1174       C  0.18097287  0.56687213  0.34932003     0.01800
C1175       C  0.16677024  0.58103637  0.33052359    -0.14300
C1176       C  0.14291896  0.56346520  0.30745772    -0.12000
C1177       C  0.13277335  0.53149711  0.30212475     0.01300
C1178       C  0.14651968  0.51701561  0.32029585    -0.24100
H1179       H  0.24970611  0.65644611  0.40946785     0.09300
H1180       H  0.21097582  0.63087487  0.36629702     0.12900
H1181       H  0.24772189  0.56931716  0.43212693     0.11600
H1182       H  0.21462049  0.52223143  0.40087996     0.12800
H1183       H  0.17457635  0.49391115  0.35844563     0.11900
H1184       H  0.17331102  0.60550683  0.33326063     0.08900
H1185       H  0.13264265  0.57501646  0.29330384     0.12200
H1186       H  0.13887021  0.99238523  0.31627127     0.14100
C1187       C  0.36444026  0.96647845  0.30077170    -0.01400
C1188       C  0.36019739  0.93800186  0.31393589    -0.09500
C1189       C  0.33626762  0.92068292  0.33702848    -0.18300
C1190       C  0.31545548  0.93120491  0.34751528     0.04100
C1191       C  0.31945140  0.95973900  0.33349600     0.18300
C1192       C  0.34404426  0.97725323  0.31097809    -0.19700
C1193       C  0.29892885  0.97073990  0.34205120    -0.21000
C1194       C  0.27481610  0.95435892  0.36495833    -0.19500
C1195       C  0.27102264  0.92691096  0.38032169     0.19700
C1196       C  0.29112753  0.91476747  0.37168734     0.01800
C1197       C  0.28653200  0.88721653  0.38834839    -0.14300
C1198       C  0.26384028  0.87315426  0.41340831    -0.12000
C1199       C  0.24463652  0.88566522  0.42236234     0.01300
C1200       C  0.24780849  0.91207736  0.40507647    -0.24100
H1201       H  0.37507171  0.92869088  0.30591719     0.09300
H1202       H  0.33448173  0.89899501  0.34585680     0.12900
H1203       H  0.34734108  0.99951526  0.30147494     0.11600
H1204       H  0.30165703  0.99228729  0.33107839     0.12800
H1205       H  0.25947758  0.96363622  0.37128521     0.11900
H1206       H  0.30057928  0.87637898  0.38324411     0.08900
H1207       H  0.26155083  0.85248578  0.42610844     0.12200
H1208       H  0.23300811  0.92189394  0.41180631     0.14100
C1209       C  0.40056205  0.53234170  0.80309779    -0.01400
C1210       C  0.42063134  0.56488696  0.80663065    -0.09500
C1211       C  0.41491299  0.58168709  0.83120493    -0.18300
C1212       C  0.38891240  0.56613766  0.85319053     0.04100
C1213       C  0.36987650  0.53269462  0.85065701     0.18300
C1214       C  0.37560205  0.51621898  0.82543034    -0.19700
C1215       C  0.34505476  0.51593633  0.87307691    -0.21000
C1216       C  0.33809968  0.53177037  0.89750091    -0.19500
C1217       C  0.35538526  0.56476374  0.89961156     0.19700
C1218       C  0.38099819  0.58249348  0.87745362     0.01800
C1219       C  0.39701958  0.61582804  0.88003329    -0.14300
C1220       C  0.38820562  0.63082564  0.90391605    -0.12000
C1221       C  0.36327198  0.61319194  0.92603707     0.01300
C1222       C  0.34695560  0.58014604  0.92363849    -0.24100
H1223       H  0.44048106  0.57743163  0.78983811     0.09300
H1224       H  0.43126785  0.60671893  0.83239265     0.12900
H1225       H  0.36070743  0.99051406  0.82318153     0.11600
H1226       H  0.33101678  0.98997885  0.87193847     0.12800
H1227       H  0.31865163  0.51814190  0.91445550     0.11900
H1228       H  0.41616821  0.63100972  0.86368333     0.08900
H1229       H  0.40110405  0.65639891  0.90510413     0.12200
H1230       H  0.32751657  0.56623435  0.94052008     0.14100
C1231       C  0.39958814  0.53473218  0.19820423    -0.01400
C1232       C  0.38218942  0.54933849  0.20694479    -0.09500
C1233       C  0.37406254  0.56470453  0.18294763    -0.18300
C1234       C  0.38366284  0.56656059  0.14925689     0.04100
C1235       C  0.40337814  0.55393217  0.14096722     0.18300
C1236       C  0.41068877  0.53772961  0.16521680    -0.19700
C1237       C  0.41547075  0.55737209  0.10847173    -0.21000
C1238       C  0.40829346  0.57306905  0.08395904    -0.19500
C1239       C  0.38789708  0.58459112  0.09105655     0.19700
C1240       C  0.37466424  0.58080721  0.12361623     0.01800
C1241       C  0.35234922  0.59068706  0.12888003    -0.14300
C1242       C  0.34419986  0.60451534  0.10308014    -0.12000
C1243       C  0.35840925  0.60945826  0.07159255     0.01300
C1244       C  0.38025660  0.59951621  0.06565697    -0.24100
H1245       H  0.37468914  0.54888664  0.23259998     0.09300
H1246       H  0.36074161  0.57538575  0.19169132     0.12900
H1247       H  0.42441159  0.52685067  0.15806893     0.11600
H1248       H  0.43078928  0.54809877  0.10205093     0.12800
H1249       H  0.41827088  0.57567284  0.05910690     0.11900
H1250       H  0.34022511  0.58737765  0.15237716     0.08900
H1251       H  0.32700226  0.61180478  0.10790281     0.12200
H1252       H  0.39071783  0.60271456  0.04095795     0.14100
C1253       C  0.13358076  0.60055174  0.80257114    -0.01400
C1254       C  0.14933031  0.63088433  0.81643235    -0.09500
C1255       C  0.17191161  0.63857343  0.84130574    -0.18300
C1256       C  0.17954430  0.61597562  0.85330710     0.04100
C1257       C  0.16361537  0.58517341  0.83905494     0.18300
C1258       C  0.14063335  0.57766038  0.81414110    -0.19700
C1259       C  0.17103950  0.56226260  0.84944369    -0.21000
C1260       C  0.19434424  0.56947249  0.87341300    -0.19500
C1261       C  0.21031306  0.59955020  0.88802500     0.19700
C1262       C  0.20268404  0.62303076  0.87862284     0.01800
C1263       C  0.21842754  0.65256391  0.89511812    -0.14300
C1264       C  0.24115807  0.65872892  0.91939869    -0.12000
C1265       C  0.24922796  0.63591094  0.92798511     0.01300
C1266       C  0.23375107  0.60631203  0.91220140    -0.24100
H1267       H  0.14402517  0.64883469  0.80808681     0.09300
H1268       H  0.18317738  0.66256569  0.85022853     0.12900
H1269       H  0.12875688  0.55422549  0.80316665     0.11600
H1270       H  0.15901002  0.53874066  0.83867400     0.12800
H1271       H  0.19982130  0.55135841  0.88067139     0.11900
H1272       H  0.21354239  0.67137232  0.89021981     0.08900
H1273       H  0.25265022  0.68169721  0.93141094     0.12200
H1274       H  0.23953721  0.58833841  0.91916547     0.14100
C1275       C  0.38401361  0.74971610  0.92703277    -0.01400
C1276       C  0.36749041  0.76112194  0.90841127    -0.09500
C1277       C  0.38265345  0.78412115  0.88355404    -0.18300
C1278       C  0.41499409  0.79635735  0.87634161     0.04100
C1279       C  0.43147638  0.78442030  0.89512621     0.18300
C1280       C  0.41604300  0.76161120  0.92017568    -0.19700
C1281       C  0.46330510  0.79514317  0.88875087    -0.21000
C1282       C  0.47921287  0.81731750  0.86378560    -0.19500
C1283       C  0.46380843  0.82966382  0.84485990     0.19700
C1284       C  0.43157769  0.81974129  0.85109124     0.01800
C1285       C  0.41752635  0.83379971  0.83185543    -0.14300
C1286       C  0.43471515  0.85644934  0.80739445    -0.12000
C1287       C  0.46620962  0.86554779  0.80100851     0.01300
C1288       C  0.48060213  0.85204164  0.81977485    -0.24100
H1289       H  0.34272681  0.75234471  0.91314661     0.09300
H1290       H  0.36837551  0.79164476  0.87026113     0.12900
H1291       H  0.42910257  0.75288986  0.93423538     0.11600
H1292       H  0.47596611  0.78611318  0.90302617     0.12800
H1293       H  0.50379611  0.82493674  0.85931373     0.11900
H1294       H  0.39341213  0.82797852  0.83525425     0.08900
H1295       H  0.42322710  0.86668368  0.79306054     0.12200
H1296       H  0.50512022  0.85939202  0.81516140     0.14100
C1297       C  0.25172257  0.63873932  0.07415465    -0.01400
C1298       C  0.26138523  0.65090081  0.10646364    -0.09500
C1299       C  0.23936066  0.64325404  0.13212519    -0.18300
C1300       C  0.20673119  0.62377305  0.12589128     0.04100
C1301       C  0.19707107  0.61245162  0.09265958     0.18300
C1302       C  0.21958615  0.61922589  0.06746215    -0.19700
C1303       C  0.16501195  0.59508042  0.08461241    -0.21000
C1304       C  0.14225407  0.58905114  0.10880508    -0.19500
C1305       C  0.15096743  0.59906719  0.14196840     0.19700
C1306       C  0.18332131  0.61581380  0.15117814     0.01800
C1307       C  0.19082096  0.62353680  0.18536598    -0.14300
C1308       C  0.16725283  0.61594200  0.20913629    -0.12000
C1309       C  0.13541076  0.60086662  0.19976166     0.01300
C1310       C  0.12747839  0.59229669  0.16603900    -0.24100
H1311       H  0.28616172  0.66620180  0.11195188     0.09300
H1312       H  0.24853060  0.65369156  0.15630632     0.12900
H1313       H  0.21205514  0.61027979  0.04222891     0.11600
H1314       H  0.15748947  0.58664661  0.05925260     0.12800
H1315       H  0.11764253  0.57609076  0.10162013     0.11900
H1316       H  0.21464981  0.63482102  0.19465539     0.08900
H1317       H  0.17408790  0.62171927  0.23517158     0.12200
H1318       H  0.10300038  0.58059766  0.15835199     0.14100
C1319       C  0.38918613  0.74627420  0.07371699    -0.01400
C1320       C  0.37543626  0.76383777  0.08466433    -0.09500
C1321       C  0.39023841  0.78754472  0.10856915    -0.18300
C1322       C  0.41972379  0.79481682  0.12220051     0.04100
C1323       C  0.43324925  0.77635034  0.11170664     0.18300
C1324       C  0.41785060  0.75222897  0.08779446    -0.19700
C1325       C  0.46217604  0.78229012  0.12491130    -0.21000
C1326       C  0.47798648  0.80618600  0.14837791    -0.19500
C1327       C  0.46531996  0.82481569  0.15909478     0.19700
C1328       C  0.43614776  0.81961457  0.14594985     0.01800
C1329       C  0.42469628  0.83948738  0.15717315    -0.14300
C1330       C  0.44079357  0.86254334  0.18148193    -0.12000
C1331       C  0.46906605  0.86700011  0.19512561     0.01300
C1332       C  0.48152541  0.84845609  0.18319049    -0.24100
H1333       H  0.35302364  0.75930601  0.07456208     0.09300
H1334       H  0.37795440  0.79976935  0.11569353     0.12900
H1335       H  0.42859380  0.73864718  0.07950677     0.11600
H1336       H  0.47263006  0.76832877  0.11706764     0.12800
H1337       H  0.50026584  0.81009119  0.15826608     0.11900
H1338       H  0.40315960  0.83764399  0.14802183     0.08900
H1339       H  0.43048264  0.87633351  0.19030270     0.12200
H1340       H  0.50385578  0.85227537  0.19284326     0.14100
C1341       C  0.03296561  0.63518262  0.80219491    -0.01400
C1342       C  0.03021373  0.62595753  0.83591366    -0.09500
C1343       C  0.04447638  0.64838145  0.86141020    -0.18300
C1344       C  0.06196978  0.68108347  0.85404990     0.04100
C1345       C  0.06415482  0.69040334  0.81991351     0.18300
C1346       C  0.05018813  0.66757573  0.79450276    -0.19700
C1347       C  0.08021428  0.72248456  0.81127439    -0.21000
C1348       C  0.09424876  0.74563502  0.83583546    -0.19500
C1349       C  0.09325274  0.73729060  0.86959096     0.19700
C1350       C  0.07739056  0.70486567  0.87920524     0.01800
C1351       C  0.07829887  0.69771038  0.91346246    -0.14300
C1352       C  0.09458224  0.72167777  0.93693404    -0.12000
C1353       C  0.10968991  0.75345241  0.92731925     0.01300
C1354       C  0.10858127  0.76120418  0.89375062    -0.24100
H1355       H  0.01644453  0.60125121  0.84276297     0.09300
H1356       H  0.04094311  0.63937093  0.88667712     0.12900
H1357       H  0.05291655  0.67515684  0.76854266     0.11600
H1358       H  0.08180342  0.72974936  0.78530102     0.12800
H1359       H  0.10640322  0.77025083  0.82830047     0.11900
H1360       H  0.06727746  0.67383745  0.92280266     0.08900
H1361       H  0.09514975  0.71536117  0.96290602     0.12200
H1362       H  0.12056360  0.78585987  0.88629240     0.14100
C1363       C  0.11415824  0.75094059  0.07126824    -0.01400
C1364       C  0.13099379  0.74041023  0.09066542    -0.09500
C1365       C  0.11582018  0.71691494  0.11490241    -0.18300
C1366       C  0.08312933  0.70328493  0.12077121     0.04100
C1367       C  0.06635415  0.71473998  0.10172274     0.18300
C1368       C  0.08181375  0.73798900  0.07704244    -0.19700
C1369       C  0.03429193  0.70317097  0.10763287    -0.21000
C1370       C  0.01856586  0.68082075  0.13254657    -0.19500
C1371       C  0.03430084  0.66882394  0.15150292     0.19700
C1372       C  0.06659952  0.67920230  0.14528471     0.01800
C1373       C  0.08082702  0.66486986  0.16375791    -0.14300
C1374       C  0.06401128  0.64220268  0.18829178    -0.12000
C1375       C  0.03269882  0.63330969  0.19540537     0.01300
C1376       C  0.01787627  0.64645548  0.17670001    -0.24100
H1377       H  0.15606610  0.75022421  0.08698379     0.09300
H1378       H  0.13041677  0.71029658  0.12898483     0.12900
H1379       H  0.06860612  0.74624212  0.06251067     0.11600
H1380       H  0.02138753  0.71185294  0.09324240     0.12800
H1381       H  0.49386944  0.67275669  0.13691667     0.11900
H1382       H  0.10479443  0.67047059  0.15966217     0.08900
H1383       H  0.07574058  0.63199121  0.20227093     0.12200
H1384       H  0.49337044  0.63898221  0.18159448     0.14100
C1385       C  0.14486206  0.89551473  0.92934635    -0.01400
C1386       C  0.12408880  0.90634767  0.93716966    -0.09500
C1387       C  0.11627944  0.92217974  0.91333443    -0.18300
C1388       C  0.12853860  0.92704300  0.88041216     0.04100
C1389       C  0.14893235  0.91511257  0.87229320     0.18300
C1390       C  0.15753134  0.90021040  0.89698543    -0.19700
C1391       C  0.16004131  0.91755463  0.83945381    -0.21000
C1392       C  0.15098892  0.93124596  0.81438747    -0.19500
C1393       C  0.13150598  0.94380253  0.82181169     0.19700
C1394       C  0.12063774  0.94259887  0.85509415     0.01800
C1395       C  0.10250155  0.95720539  0.86163151    -0.14300
C1396       C  0.09473269  0.97157425  0.83600942    -0.12000
C1397       C  0.10448730  0.97170524  0.80298618     0.01300
C1398       C  0.12290191  0.95769634  0.79613185    -0.24100
H1399       H  0.11396583  0.90272860  0.96206070     0.09300
H1400       H  0.09993737  0.92955809  0.92124570     0.12900
H1401       H  0.17319235  0.89127729  0.89075626     0.11600
H1402       H  0.17537331  0.90831090  0.83298550     0.12800
H1403       H  0.15954629  0.93230295  0.78907532     0.11900
H1404       H  0.09450669  0.95854273  0.88642105     0.08900
H1405       H  0.08143657  0.98311317  0.84227659     0.12200
H1406       H  0.13047696  0.95741314  0.77064530     0.14100
C1407       C  0.25061425  0.86377698  0.92973414    -0.01400
C1408       C  0.28209939  0.88506866  0.93757015    -0.09500
C1409       C  0.30563792  0.89339513  0.91358168    -0.18300
C1410       C  0.29816480  0.88102886  0.88066480     0.04100
C1411       C  0.26586865  0.86087831  0.87243490     0.18300
C1412       C  0.24255839  0.85189460  0.89712881    -0.19700
C1413       C  0.25702694  0.84990303  0.83959839    -0.21000
C1414       C  0.27964970  0.85828603  0.81471628    -0.19500
C1415       C  0.31169549  0.87680756  0.82239081     0.19700
C1416       C  0.32149272  0.88805313  0.85557442     0.01800
C1417       C  0.35418493  0.90508715  0.86235178    -0.14300
C1418       C  0.37616126  0.91074515  0.83716521    -0.12000
C1419       C  0.36640986  0.90017034  0.80428352     0.01300
C1420       C  0.33403409  0.88363361  0.79709980    -0.24100
H1421       H  0.28862588  0.89485615  0.96261838     0.09300
H1422       H  0.32935008  0.90988060  0.92140630     0.12900
H1423       H  0.21802626  0.83606853  0.89086357     0.11600
H1424       H  0.23243595  0.83489744  0.83306878     0.12800
H1425       H  0.27206045  0.84957288  0.78944754     0.11900
H1426       H  0.36350279  0.91346449  0.88709780     0.08900
H1427       H  0.40089945  0.92292343  0.84373817     0.12200
H1428       H  0.32604921  0.87580731  0.77168248     0.14100
C1429       C  0.13478933  0.88539438  0.07402907    -0.01400
C1430       C  0.10444313  0.87005228  0.08770051    -0.09500
C1431       C  0.09603395  0.88468791  0.11238621    -0.18300
C1432       C  0.11801994  0.91515399  0.12437054     0.04100
C1433       C  0.14892433  0.93027847  0.11063435     0.18300
C1434       C  0.15688439  0.91543424  0.08565878    -0.19700
C1435       C  0.17179794  0.96018109  0.12181760    -0.21000
C1436       C  0.16467782  0.97562909  0.14642794    -0.19500
C1437       C  0.13450097  0.96154754  0.16031369     0.19700
C1438       C  0.11061461  0.93115414  0.14950000     0.01800
C1439       C  0.08044919  0.91823768  0.16432487    -0.14300
C1440       C  0.07451859  0.93475543  0.18904470    -0.12000
C1441       C  0.09833166  0.96450049  0.19967749     0.01300
C1442       C  0.12815136  0.97781469  0.18507687    -0.24100
H1443       H  0.08696569  0.84680553  0.07893277     0.09300
H1444       H  0.07221559  0.87151689  0.12155066     0.12900
H1445       H  0.18052456  0.92728814  0.07535626     0.11600
H1446       H  0.19539342  0.97170927  0.11146095     0.12800
H1447       H  0.18238028  0.49953050  0.15290639     0.11900
H1448       H  0.06098832  0.89547895  0.15748506     0.08900
H1449       H  0.05132037  0.92404158  0.20023883     0.12200
H1450       H  0.14615922  0.50181331  0.19155858     0.14100
C1451       C  0.24795044  0.86251948  0.07610250    -0.01400
C1452       C  0.25806089  0.84079172  0.08248280    -0.09500
C1453       C  0.28044593  0.84657523  0.10717257    -0.18300
C1454       C  0.29385572  0.87466255  0.12634315     0.04100
C1455       C  0.28304113  0.89638766  0.12039071     0.18300
C1456       C  0.26025775  0.89013803  0.09549849    -0.19700
C1457       C  0.29520134  0.92430031  0.13914783    -0.21000
C1458       C  0.31808260  0.93125750  0.16355639    -0.19500
C1459       C  0.32955052  0.91059001  0.16962818     0.19700
C1460       C  0.31762044  0.88196851  0.15109885     0.01800
C1461       C  0.33022365  0.86203722  0.15796885    -0.14300
C1462       C  0.35322460  0.86993820  0.18251417    -0.12000
C1463       C  0.36466113  0.89797519  0.20071852     0.01300
C1464       C  0.35296439  0.91836289  0.19410114    -0.24100
H1465       H  0.24862623  0.81905653  0.06822841     0.09300
H1466       H  0.28674954  0.82855347  0.11049745     0.12900
H1467       H  0.25250692  0.90707048  0.09085793     0.11600
H1468       H  0.28700984  0.94092185  0.13484834     0.12800
H1469       H  0.32704650  0.95307658  0.17762372     0.11900
H1470       H  0.32293776  0.84021103  0.14481832     0.08900
H1471       H  0.36234401  0.85413003  0.18719960     0.12200
H1472       H  0.36182997  0.94006120  0.20838013     0.14100
O1473       O  0.72882247  0.37445933  0.97759318    -0.85500
O1474       O  0.67988435  0.38370447  0.95900698    -0.82500
C1475       C  0.65204696  0.37815995  0.95517948     0.98000
O1476       O  0.63021103  0.35878863  0.97415596    -0.82600
O1477       O  0.62202968  0.30093146  0.95517509    -0.85200
C1478       C  0.62684232  0.27800979  0.95250253     1.02500
O1479       O  0.64522482  0.27511860  0.97260922    -0.78000
O1480       O  0.70365093  0.32640407  0.95710692    -0.78200
C1481       C  0.72631214  0.35443433  0.95596642     1.02400
O1482       O  0.71133465  0.37204332  0.04638453    -0.85500
O1483       O  0.66629641  0.38723701  0.02855054    -0.82600
C1484       C  0.64324562  0.37011117  0.04746024     0.98000
O1485       O  0.62728307  0.34072280  0.04292254    -0.82600
O1486       O  0.61398403  0.28136177  0.02482431    -0.85200
C1487       C  0.63003736  0.27493102  0.04500986     1.02500
O1488       O  0.65956962  0.28844969  0.04218059    -0.78000
O1489       O  0.71972055  0.33476808  0.02746056    -0.78200
C1490       C  0.72482850  0.35589277  0.04898393     1.02400
Cr1491     Cr  0.69450319  0.37632600  0.00272527     1.93700
Cr1492     Cr  0.62641959  0.32145473  0.99928794     1.93200
Cr1493     Cr  0.68110727  0.30821977  0.99977554     1.39100
O1494       O  0.66729133  0.33533015  0.00081411    -1.23200
O1495       O  0.82167410  0.11863523  0.04253239    -0.85500
O1496       O  0.77126761  0.12601731  0.02574798    -0.82500
C1497       C  0.77450009  0.14665082  0.04693807     0.98000
O1498       O  0.79702265  0.17457436  0.04443888    -0.82600
O1499       O  0.85425235  0.22481825  0.02758221    -0.85200
C1500       C  0.87347984  0.22236852  0.04680506     1.02500
O1501       O  0.88010074  0.20079913  0.04228251    -0.78000
O1502       O  0.87042125  0.14212350  0.02435884    -0.78200
C1503       C  0.84958072  0.12415044  0.04510626     1.02400
O1504       O  0.83237208  0.11204786  0.97281423    -0.85500
O1505       O  0.78625916  0.12629131  0.95653265    -0.82600
C1506       C  0.77295409  0.14259557  0.95391940     0.98000
O1507       O  0.77911198  0.16477444  0.97442415    -0.82600
O1508       O  0.83864776  0.21185749  0.95784287    -0.85200
C1509       C  0.86806380  0.22513494  0.95375425     1.02500
O1510       O  0.88457534  0.21837926  0.97281497    -0.78000
O1511       O  0.86963605  0.15813004  0.95512862    -0.78200
C1512       C  0.85428191  0.12848532  0.95233480     1.02400
Cr1513     Cr  0.80501233  0.12382867  0.99941296     1.93700
Cr1514     Cr  0.81821968  0.19195421  0.00096616     1.93200
Cr1515     Cr  0.87309171  0.17881464  0.99868044     1.39100
O1516       O  0.83215599  0.16495932  0.99943972    -1.23200
C1517       C  0.97087771  0.50052191  0.25090787     0.02100
C1518       C  0.97039401  0.47123420  0.25077871     0.02100
C1519       C  0.49902522  0.47073121  0.25048347     0.02100
C1520       C  0.52807271  0.49952394  0.25054846     0.02100
C1521       C  0.52856898  0.02859697  0.25037902     0.02100
C1522       C  0.49993838  0.02911417  0.25061769     0.02100
C1523       C  0.90563467  0.01627521  0.22419416     0.03000
C1524       C  0.93400269  0.01583212  0.22468327    -0.13200
C1525       C  0.94060034  0.00071465  0.25081292     0.00500
C1526       C  0.91843397  0.48596674  0.27625741    -0.11700
C1527       C  0.88897860  0.48415206  0.27464168     0.03000
C1528       C  0.88288847  0.99926379  0.24871997    -0.11100
H1529       H  0.95144425  0.02789961  0.20532051     0.08600
H1530       H  0.92398578  0.47531129  0.29707841     0.06100
H1531       H  0.85992537  0.99723348  0.24674535     0.05900
C1532       C  0.60844154  0.01342919  0.27701919     0.03000
C1533       C  0.57999103  0.01362482  0.27706794    -0.13200
C1534       C  0.55811082  0.99892635  0.25108730     0.00500
C1535       C  0.56474433  0.48393881  0.22496586    -0.11700
C1536       C  0.59229077  0.48211249  0.22568176     0.03000
C1537       C  0.61409714  0.99677960  0.25201353    -0.11100
H1538       H  0.57500735  0.02545960  0.29711517     0.08600
H1539       H  0.54830023  0.47344802  0.20433250     0.06100
H1540       H  0.63578055  0.99595403  0.25244530     0.05900
C1541       C  0.61048350  0.09386790  0.22514863     0.03000
C1542       C  0.58122065  0.06576318  0.22449739    -0.13200
C1543       C  0.55923519  0.05877470  0.25038006     0.00500
C1544       C  0.56656819  0.08012996  0.27688348    -0.11700
C1545       C  0.59494334  0.10891747  0.27706967     0.03000
C1546       C  0.61666056  0.11564990  0.25109170    -0.11100
H1547       H  0.57574797  0.04878086  0.20452486     0.08600
H1548       H  0.55001791  0.07423387  0.29735704     0.06100
H1549       H  0.63829958  0.13821907  0.25080460     0.05900
C1550       C  0.51530318  0.10996026  0.22231955     0.03000
C1551       C  0.51537696  0.08131728  0.22360494    -0.13200
C1552       C  0.50042084  0.05989218  0.24996682     0.00500
C1553       C  0.98497385  0.06723881  0.27497282    -0.11700
C1554       C  0.98348727  0.09509263  0.27312988     0.03000
C1555       C  0.49903374  0.11660977  0.24703430    -0.11100
H1556       H  0.52682680  0.07551600  0.20386271     0.08600
H1557       H  0.97362544  0.05097937  0.29560693     0.06100
H1558       H  0.49845609  0.13848676  0.24599375     0.05900
C1559       C  0.88836955  0.40563517  0.22713564     0.03000
C1560       C  0.88218987  0.38410709  0.25324752    -0.13200
C1561       C  0.90461195  0.39072462  0.27841412     0.00500
C1562       C  0.93310977  0.41942927  0.27774083    -0.11700
C1563       C  0.93982123  0.44096314  0.25141134     0.03000
C1564       C  0.91736818  0.43379740  0.22598680    -0.11100
H1565       H  0.86004957  0.36197226  0.25369088     0.08600
H1566       H  0.95016289  0.42499693  0.29766770     0.06100
H1567       H  0.92250571  0.45007943  0.20529995     0.05900
C1568       C  0.98474040  0.39004466  0.22259014     0.03000
C1569       C  0.49896106  0.38274946  0.24905961    -0.13200
C1570       C  0.51400906  0.40406678  0.27553335     0.00500
C1571       C  0.51312540  0.43239575  0.27609056    -0.11700
C1572       C  0.49870352  0.43997757  0.25008394     0.03000
C1573       C  0.98500980  0.41894445  0.22316159    -0.11100
H1574       H  0.49751553  0.35991260  0.24944112     0.08600
H1575       H  0.52439348  0.44922209  0.29621912     0.06100
H1576       H  0.97481422  0.42533513  0.20259044     0.05900
O1577       O  0.85350013  0.12492708  0.52375091    -0.85500
O1578       O  0.79635676  0.11878524  0.54192058    -0.82500
C1579       C  0.77526323  0.12612502  0.54589125     0.98000
O1580       O  0.77228161  0.14399381  0.52503702    -0.82600
O1581       O  0.82149331  0.20118482  0.54269051    -0.85200
C1582       C  0.84952813  0.22268923  0.54738644     1.02500
O1583       O  0.87129949  0.22483043  0.52847978    -0.78000
O1584       O  0.87747858  0.17322181  0.54334219    -0.78200
C1585       C  0.87164275  0.14504760  0.54489979     1.02400
O1586       O  0.83839552  0.12672265  0.45498864    -0.85500
O1587       O  0.77875907  0.11349867  0.47248881    -0.82600
C1588       C  0.77407574  0.13040636  0.45183585     0.98000
O1589       O  0.78810123  0.15996219  0.45538862    -0.82600
O1590       O  0.83404751  0.21932809  0.47368935    -0.85200
C1591       C  0.85658370  0.22528260  0.45407414     1.02500
O1592       O  0.87275609  0.21199123  0.45801955    -0.72800
O1593       O  0.88452356  0.16409377  0.47273632    -0.78200
C1594       C  0.86796217  0.14232788  0.45196089     1.02400
Cr1595     Cr  0.81775982  0.12404986  0.49839561     1.93700
Cr1596     Cr  0.80599178  0.17998002  0.49912498     1.93200
Cr1597     Cr  0.87350758  0.19159557  0.50059775     1.39100
O1598       O  0.83248455  0.16530930  0.49922302    -1.23200
O1599       O  0.61974051  0.32138278  0.45664802    -0.85500
O1600       O  0.62831337  0.27208773  0.47482604    -0.82500
C1601       C  0.64924700  0.27390300  0.45501513     0.98000
O1602       O  0.67741257  0.29572865  0.45807978    -0.82600
O1603       O  0.72639682  0.35481758  0.47140645    -0.85200
C1604       C  0.72268476  0.37219024  0.45045691     1.02500
O1605       O  0.70104695  0.37873422  0.45443785    -0.78000
O1606       O  0.64333425  0.37069645  0.47318232    -0.78200
C1607       C  0.62458300  0.34911708  0.45359608     1.02400
O1608       O  0.61481422  0.33392612  0.52643017    -0.85500
O1609       O  0.62903441  0.28824472  0.54389435    -0.82600
C1610       C  0.64558625  0.27536145  0.54797241     0.98000
O1611       O  0.66836381  0.28173136  0.52848446    -0.82600
O1612       O  0.71416594  0.34285214  0.54218916    -0.85200
C1613       C  0.72770678  0.37256229  0.54403916     1.02500
O1614       O  0.72081624  0.38790294  0.52338827    -0.78000
O1615       O  0.66061047  0.37358445  0.54190393    -0.78200
C1616       C  0.63119230  0.35695702  0.54580220     1.02400
Cr1617     Cr  0.62615621  0.30607479  0.50038832     1.93700
Cr1618     Cr  0.69447155  0.31985924  0.50009350     1.93200
Cr1619     Cr  0.68050987  0.37454889  0.49833390     1.39100
O1620       O  0.66704604  0.33343441  0.49980629    -1.23200
C1621       C  0.52845336  0.49901306  0.74899214     0.02100
C1622       C  0.99937600  0.47019317  0.74877685     0.02100
C1623       C  0.97062343  0.47050203  0.74897190     0.02100
C1624       C  0.97109488  0.49973911  0.74927865     0.02100
C1625       C  0.00006793  0.02883233  0.75022340     0.02100
C1626       C  0.52870541  0.02839381  0.75002723     0.02100
C1627       C  0.61045899  0.01731603  0.72357739     0.03000
C1628       C  0.61820525  0.50389882  0.75086285    -0.13200
C1629       C  0.59619918  0.48693202  0.77599662     0.00500
C1630       C  0.56668726  0.48512613  0.77503323    -0.11700
C1631       C  0.55887205  0.49898116  0.74858389     0.03000
C1632       C  0.58053167  0.01440945  0.72242423    -0.11100
H1633       H  0.64175801  0.50735978  0.75276918     0.08600
H1634       H  0.54964111  0.47290807  0.79471368     0.06100
H1635       H  0.57417324  0.02437279  0.70158050     0.05900
C1636       C  0.89015673  0.48527530  0.72420983     0.03000
C1637       C  0.88389296  0.50030430  0.75059266    -0.13200
C1638       C  0.90585508  0.01515132  0.77596701     0.00500
C1639       C  0.93404316  0.01459983  0.77562337    -0.11700
C1640       C  0.94094613  0.50004074  0.74934877     0.03000
C1641       C  0.91884961  0.48552794  0.72342502    -0.11100
H1642       H  0.86196284  0.50066070  0.75100285     0.08600
H1643       H  0.95075264  0.02548138  0.79598138     0.06100
H1644       H  0.92397006  0.47443198  0.70271966     0.05900
C1645       C  0.51644120  0.11127804  0.77503982     0.03000
C1646       C  0.00212951  0.11783081  0.74803733    -0.13200
C1647       C  0.98655336  0.09557532  0.72241706     0.00500
C1648       C  0.98654701  0.06687300  0.72338673    -0.11700
C1649       C  0.00052747  0.05968464  0.75008850     0.03000
C1650       C  0.51510923  0.08181581  0.77608778    -0.11100
H1651       H  0.00284145  0.14031424  0.74720049     0.08600
H1652       H  0.97493584  0.04949365  0.70379902     0.06100
H1653       H  0.52595687  0.07624515  0.79667815     0.05900
C1654       C  0.61050532  0.09332428  0.77493848     0.03000
C1655       C  0.58116861  0.06548642  0.77582811    -0.13200
C1656       C  0.55922002  0.05859500  0.74996315     0.00500
C1657       C  0.56642529  0.08015331  0.72361839    -0.11700
C1658       C  0.59507574  0.10862681  0.72320030     0.03000
C1659       C  0.61727450  0.11478976  0.74848893    -0.11100
H1660       H  0.57531717  0.04914209  0.79658429     0.08600
H1661       H  0.54964112  0.07475522  0.70344488     0.06100
H1662       H  0.63970065  0.13658693  0.74778969     0.05900
C1663       C  0.51515616  0.40452662  0.72341295     0.03000
C1664       C  0.51388904  0.43256684  0.72283499    -0.13200
C1665       C  0.99912793  0.43964663  0.74876939     0.00500
C1666       C  0.98432445  0.41783854  0.77480417    -0.11700
C1667       C  0.98391431  0.38899732  0.77492608     0.03000
C1668       C  0.50004128  0.38277686  0.74968526    -0.11100
H1669       H  0.52435956  0.44902273  0.70219176     0.08600
H1670       H  0.97301671  0.42330179  0.79498785     0.06100
H1671       H  0.50046052  0.36082182  0.75038732     0.05900
C1672       C  0.90311938  0.38862780  0.72582847     0.03000
C1673       C  0.93144995  0.41772729  0.72420664    -0.13200
C1674       C  0.93988950  0.44015867  0.74998215     0.00500
C1675       C  0.91905104  0.43396843  0.77680737    -0.11700
C1676       C  0.88999862  0.40577743  0.77809772     0.03000
C1677       C  0.88285838  0.38288322  0.75314804    -0.11100
H1678       H  0.94706694  0.42316867  0.70295236     0.08600
H1679       H  0.92532068  0.45163550  0.79619364     0.06100
H1680       H  0.86160509  0.36016509  0.75543578     0.05900
C1681       C  0.63770664  0.25164692  0.57479659    -0.01400
C1682       C  0.60870444  0.23851849  0.59137022    -0.09500
C1683       C  0.60057040  0.21504722  0.61559760    -0.18300
C1684       C  0.62142766  0.20400968  0.62421256     0.04100
C1685       C  0.65104860  0.21779729  0.60765827     0.18300
C1686       C  0.65882474  0.24125151  0.58323142    -0.19700
C1687       C  0.67272344  0.20800588  0.61539965    -0.21000
C1688       C  0.66562517  0.18468567  0.63929817    -0.19500
C1689       C  0.63665529  0.17054488  0.65595105     0.19700
C1690       C  0.61402047  0.17985366  0.64859974     0.01800
C1691       C  0.58497374  0.16450062  0.66595034    -0.14300
C1692       C  0.57885718  0.14114506  0.68968282    -0.12000
C1693       C  0.60140075  0.13242778  0.69700972     0.01300
C1694       C  0.63021221  0.14713238  0.68003224    -0.24100
H1695       H  0.59193367  0.24606957  0.58523693     0.09300
H1696       H  0.57776790  0.20602679  0.62701955     0.12900
H1697       H  0.68143126  0.25139296  0.57067948     0.11600
H1698       H  0.69534305  0.21845911  0.60286693     0.12800
H1699       H  0.68290979  0.17762073  0.64475759     0.11900
H1700       H  0.56649897  0.16998043  0.66186505     0.08900
H1701       H  0.55655937  0.13020304  0.70285585     0.12200
H1702       H  0.64758827  0.14017415  0.68549990     0.14100
C1703       C  0.53156589  0.39765604  0.69622347    -0.01400
C1704       C  0.51850525  0.36695274  0.68355823    -0.09500
C1705       C  0.53379810  0.35973616  0.65868465    -0.18300
C1706       C  0.56301281  0.38314115  0.64549436     0.04100
C1707       C  0.57561811  0.41464558  0.65721667     0.18300
C1708       C  0.56002369  0.42157535  0.68256906    -0.19700
C1709       C  0.60373326  0.43890439  0.64366095    -0.21000
C1710       C  0.61995473  0.43239775  0.61915418    -0.19500
C1711       C  0.60871837  0.40138260  0.60799535     0.19700
C1712       C  0.58007089  0.37632821  0.62109937     0.01800
C1713       C  0.56992151  0.34534453  0.60964675    -0.14300
C1714       C  0.58695869  0.33955099  0.58565145    -0.12000
C1715       C  0.61488953  0.36418392  0.57244020     0.01300
C1716       C  0.62590546  0.39511579  0.58388029    -0.24100
H1717       H  0.49605269  0.34830758  0.69271555     0.09300
H1718       H  0.52188139  0.33559217  0.65018933     0.12900
H1719       H  0.57038230  0.44551276  0.69209179     0.11600
H1720       H  0.61322668  0.46306742  0.65205661     0.12800
H1721       H  0.64163892  0.45169027  0.60919248     0.11900
H1722       H  0.54903371  0.32491356  0.61885723     0.08900
H1723       H  0.57822939  0.31542621  0.57746963     0.12200
H1724       H  0.64749359  0.41431544  0.57360488     0.14100
C1725       C  0.86690171  0.46959601  0.69723987    -0.01400
C1726       C  0.86160437  0.48762638  0.67368727    -0.09500
C1727       C  0.83974868  0.47300139  0.64786583    -0.18300
C1728       C  0.82214781  0.43963637  0.64515992     0.04100
C1729       C  0.82762286  0.42153402  0.66947830     0.18300
C1730       C  0.85006781  0.43662011  0.69499317    -0.19700
C1731       C  0.81054914  0.38849752  0.66830514    -0.21000
C1732       C  0.78808368  0.37290759  0.64346366    -0.19500
C1733       C  0.78214482  0.38994903  0.61909403     0.19700
C1734       C  0.79916814  0.42357057  0.61946828     0.01800
C1735       C  0.79230997  0.43958108  0.59417427    -0.14300
C1736       C  0.76929973  0.42294885  0.56992391    -0.12000
C1737       C  0.75234263  0.38982212  0.56980455     0.01300
C1738       C  0.75909470  0.37349781  0.59442805    -0.24100
H1739       H  0.87466340  0.51319808  0.67516464     0.09300
H1740       H  0.83707063  0.48847978  0.63059836     0.12900
H1741       H  0.85425488  0.42274348  0.71341864     0.11600
H1742       H  0.81447006  0.37460218  0.68687369     0.12800
H1743       H  0.77519801  0.34729327  0.64335921     0.11900
H1744       H  0.80425560  0.46496669  0.59241328     0.08900
H1745       H  0.76479003  0.43623248  0.55111290     0.12200
H1746       H  0.74621860  0.34787291  0.59459693     0.14100
C1747       C  0.88691744  0.13569235  0.57062864    -0.01400
C1748       C  0.89619125  0.11352388  0.56319927    -0.09500
C1749       C  0.91204573  0.10566127  0.58703982    -0.18300
C1750       C  0.91850113  0.11941060  0.61938664     0.04100
C1751       C  0.90720755  0.14039742  0.62727218     0.18300
C1752       C  0.89227857  0.14888250  0.60272242    -0.19700
C1753       C  0.91081853  0.15278546  0.65963359    -0.21000
C1754       C  0.92568031  0.14497069  0.68440266    -0.19500
C1755       C  0.93841831  0.12565087  0.67701749     0.19700
C1756       C  0.93554651  0.11301483  0.64426935     0.01800
C1757       C  0.95058772  0.09530385  0.63769213    -0.14300
C1758       C  0.96753227  0.09021370  0.66272416    -0.12000
C1759       C  0.96942006  0.10185694  0.69535337     0.01300
C1760       C  0.95440819  0.11928539  0.70222438    -0.24100
H1761       H  0.89179953  0.10276287  0.53855660     0.09300
H1762       H  0.91857419  0.08849434  0.57960402     0.12900
H1763       H  0.88436492  0.16545219  0.60871725     0.11600
H1764       H  0.90188650  0.16844941  0.66589751     0.12800
H1765       H  0.92790164  0.15474812  0.70932874     0.11900
H1766       H  0.95049398  0.08591271  0.61319526     0.08900
H1767       H  0.97952703  0.07740881  0.65623989     0.12200
H1768       H  0.95495254  0.12792520  0.72739100     0.14100
C1769       C  0.75304022  0.11295846  0.57416569    -0.01400
C1770       C  0.73513537  0.12673916  0.58389237    -0.09500
C1771       C  0.71253865  0.11317061  0.60916255    -0.18300
C1772       C  0.70678172  0.08490167  0.62511168     0.04100
C1773       C  0.72584208  0.07171840  0.61579162     0.18300
C1774       C  0.74891536  0.08601814  0.59093040    -0.19700
C1775       C  0.72119867  0.04376233  0.63057889    -0.21000
C1776       C  0.69739685  0.02799076  0.65386234    -0.19500
C1777       C  0.67793583  0.04001298  0.66320521     0.19700
C1778       C  0.68245319  0.06881805  0.64937646     0.01800
C1779       C  0.66210249  0.07985236  0.66013306    -0.14300
C1780       C  0.63842294  0.06294276  0.68370313    -0.12000
C1781       C  0.63423334  0.03457775  0.69716193     0.01300
C1782       C  0.65392740  0.02321176  0.68643920    -0.24100
H1783       H  0.73841633  0.14801241  0.57169382     0.09300
H1784       H  0.69957262  0.12499459  0.61512282     0.12900
H1785       H  0.76286031  0.07537333  0.58369064     0.11600
H1786       H  0.73572099  0.03369972  0.62363125     0.12800
H1787       H  0.69407277  0.00610175  0.66452433     0.11900
H1788       H  0.66400683  0.10152228  0.65103318     0.08900
H1789       H  0.62378865  0.07246317  0.69193192     0.12200
H1790       H  0.65055013  0.00101252  0.69625542     0.14100
C1791       C  0.85663597  0.24620993  0.57436014    -0.01400
C1792       C  0.83209577  0.24729443  0.59120356    -0.09500
C1793       C  0.83839032  0.26996494  0.61588150    -0.18300
C1794       C  0.86969062  0.29240262  0.62478516     0.04100
C1795       C  0.89450894  0.29076433  0.60818117     0.18300
C1796       C  0.88782064  0.26801316  0.58312141    -0.19700
C1797       C  0.92589389  0.31184719  0.61667928    -0.21000
C1798       C  0.93323565  0.33447054  0.64148904    -0.19500
C1799       C  0.90941107  0.33696409  0.65804361     0.19700
C1800       C  0.87729524  0.31626364  0.64964260     0.01800
C1801       C  0.85427273  0.32061740  0.66623569    -0.14300
C1802       C  0.86279820  0.34425015  0.69030849    -0.12000
C1803       C  0.89445470  0.36412728  0.69926149     0.01300
C1804       C  0.91761536  0.36018510  0.68291307    -0.24100
H1805       H  0.80776003  0.23069272  0.58506442     0.09300
H1806       H  0.81821698  0.26913741  0.62764240     0.12900
H1807       H  0.90700604  0.26724986  0.57047748     0.11600
H1808       H  0.94493503  0.31072676  0.60416675     0.12800
H1809       H  0.95776891  0.35035093  0.64754205     0.11900
H1810       H  0.82949255  0.30650710  0.66082595     0.08900
H1811       H  0.84432506  0.34707483  0.70169679     0.12200
H1812       H  0.94215749  0.37494678  0.68977371     0.14100
C1813       C  0.60743689  0.35655863  0.42823201    -0.01400
C1814       C  0.59748853  0.37811264  0.43598500    -0.09500
C1815       C  0.58193049  0.38628102  0.41220593    -0.18300
C1816       C  0.57642423  0.37355891  0.37943383     0.04100
C1817       C  0.58738763  0.35230771  0.37143255     0.18300
C1818       C  0.60197947  0.34335670  0.39607449    -0.19700
C1819       C  0.58432147  0.34069717  0.33873131    -0.21000
C1820       C  0.57087322  0.35000268  0.31367968    -0.19500
C1821       C  0.55898964  0.37010285  0.32104622     0.19700
C1822       C  0.56095586  0.38160451  0.35418618     0.01800
C1823       C  0.54687379  0.40020921  0.36074018    -0.14300
C1824       C  0.53160520  0.40716731  0.33543357    -0.12000
C1825       C  0.53044599  0.39659510  0.30247098     0.01300
C1826       C  0.54470644  0.37838910  0.29550344    -0.24100
H1827       H  0.60165370  0.38863103  0.46074263     0.09300
H1828       H  0.57528737  0.40325440  0.42001139     0.12900
H1829       H  0.61016645  0.32704029  0.38990584     0.11600
H1830       H  0.59285711  0.32472505  0.33235458     0.12800
H1831       H  0.56924856  0.34095957  0.28848445     0.11900
H1832       H  0.54632148  0.40889632  0.38542409     0.08900
H1833       H  0.52008797  0.42038504  0.34209685     0.12200
H1834       H  0.54469443  0.37045777  0.27011764     0.14100
C1835       C  0.89867177  0.36706589  0.30462146    -0.01400
C1836       C  0.92127640  0.35832465  0.31144764    -0.09500
C1837       C  0.91533702  0.33482934  0.33493586    -0.18300
C1838       C  0.88646352  0.31944989  0.35258804     0.04100
C1839       C  0.86389061  0.32901155  0.34599112     0.18300
C1840       C  0.87007684  0.35243036  0.32201737    -0.19700
C1841       C  0.83531027  0.31521910  0.36339074    -0.21000
C1842       C  0.82867982  0.29221042  0.38751098    -0.19500
C1843       C  0.85031548  0.28219982  0.39448980     0.19700
C1844       C  0.87931821  0.29525736  0.37681473     0.01800
C1845       C  0.89984422  0.28350505  0.38422227    -0.14300
C1846       C  0.89227565  0.26051726  0.40890348    -0.12000
C1847       C  0.86416741  0.24861037  0.42699760     0.01300
C1848       C  0.84313704  0.25928837  0.41931263    -0.24100
H1849       H  0.94345782  0.36932315  0.29803183     0.09300
H1850       H  0.93387881  0.32940234  0.33877162     0.12900
H1851       H  0.85269970  0.35948582  0.31698180     0.11600
H1852       H  0.81807450  0.32247445  0.35851276     0.12800
H1853       H  0.80646649  0.28218342  0.40082878     0.11900
H1854       H  0.92189645  0.29153891  0.37142342     0.08900
H1855       H  0.90873822  0.25236344  0.41413439     0.12200
H1856       H  0.82102866  0.24979576  0.43278129     0.14100
C1857       C  0.88365369  0.13461908  0.42476742    -0.01400
C1858       C  0.86652666  0.10818439  0.40412418    -0.09500
C1859       C  0.88150879  0.10069698  0.37886347    -0.18300
C1860       C  0.91429173  0.11968434  0.37325008     0.04100
C1861       C  0.93136467  0.14683809  0.39380338     0.18300
C1862       C  0.91609737  0.15378408  0.41936737    -0.19700
C1863       C  0.96360942  0.16710792  0.38865723    -0.21000
C1864       C  0.97936477  0.16119959  0.36327941    -0.19500
C1865       C  0.96344418  0.13443783  0.34295702     0.19700
C1866       C  0.93076449  0.11293922  0.34793019     0.01800
C1867       C  0.91623660  0.08546585  0.32767711    -0.14300
C1868       C  0.93347184  0.07979181  0.30353963    -0.12000
C1869       C  0.96540811  0.10146067  0.29841480     0.01300
C1870       C  0.98021461  0.12881732  0.31797733    -0.24100
H1871       H  0.84139798  0.09304989  0.40759308     0.09300
H1872       H  0.86674707  0.08012247  0.36393483     0.12900
H1873       H  0.92959295  0.17445817  0.43495199     0.11600
H1874       H  0.97671262  0.18787667  0.40420780     0.12800
H1875       H  0.00429806  0.17750423  0.35977893     0.11900
H1876       H  0.89179639  0.06767995  0.33027570     0.08900
H1877       H  0.92176882  0.05843915  0.28861296     0.12200
H1878       H  0.00509535  0.14533444  0.31427986     0.14100
C1879       C  0.64050405  0.24968679  0.42873319    -0.01400
C1880       C  0.60907115  0.23153016  0.41848856    -0.09500
C1881       C  0.60038406  0.20829590  0.39396125    -0.18300
C1882       C  0.62298088  0.20215883  0.37913911     0.04100
C1883       C  0.65475590  0.22024640  0.39018058     0.18300
C1884       C  0.66326316  0.24405595  0.41431234    -0.19700
C1885       C  0.67780506  0.21420994  0.37741423    -0.21000
C1886       C  0.66998473  0.19043239  0.35393502    -0.19500
C1887       C  0.63910080  0.17271607  0.34199857     0.19700
C1888       C  0.61518134  0.17854285  0.35407217     0.01800
C1889       C  0.58461953  0.16072137  0.34023002    -0.14300
C1890       C  0.57815931  0.13806034  0.31556887    -0.12000
C1891       C  0.60175577  0.13221670  0.30407623     0.01300
C1892       C  0.63210377  0.14943506  0.31766278    -0.24100
H1893       H  0.59104252  0.23542032  0.42937262     0.09300
H1894       H  0.57573960  0.19525446  0.38758763     0.12900
H1895       H  0.68757631  0.25775208  0.42246466     0.11600
H1896       H  0.70201003  0.22777587  0.38589806     0.12800
H1897       H  0.68831209  0.18612878  0.34473345     0.11900
H1898       H  0.56534822  0.16416326  0.34734608     0.08900
H1899       H  0.55468460  0.12550372  0.30492215     0.12200
H1900       H  0.65042147  0.14480469  0.30913514     0.14100
C1901       C  0.75124965  0.11501957  0.42430131    -0.01400
C1902       C  0.74036032  0.13176123  0.40529220    -0.09500
C1903       C  0.71767043  0.11658566  0.38032347    -0.18300
C1904       C  0.70522507  0.08403324  0.37354715     0.04100
C1905       C  0.71726572  0.06754431  0.39218853     0.18300
C1906       C  0.73986550  0.08303156  0.41725123    -0.19700
C1907       C  0.70648315  0.03555853  0.38603020    -0.21000
C1908       C  0.68351769  0.01928206  0.36197323    -0.19500
C1909       C  0.67056487  0.03453928  0.34378293     0.19700
C1910       C  0.68115254  0.06714014  0.34923999     0.01800
C1911       C  0.66676360  0.08116720  0.33053019    -0.14300
C1912       C  0.64284781  0.06347917  0.30757523    -0.12000
C1913       C  0.63281035  0.03152556  0.30229547     0.01300
C1914       C  0.64681666  0.01721465  0.32030072    -0.24100
H1915       H  0.74902880  0.15659224  0.41007874     0.09300
H1916       H  0.71031249  0.13095908  0.36689323     0.12900
H1917       H  0.74851927  0.06997616  0.43147406     0.11600
H1918       H  0.71577055  0.02297697  0.40005662     0.12800
H1919       H  0.67555234  0.99447626  0.35785889     0.11900
H1920       H  0.67323550  0.10562384  0.33321045     0.08900
H1921       H  0.63243568  0.07492894  0.29346871     0.12200
H1922       H  0.63842045  0.49214556  0.31629731     0.14100
C1923       C  0.86423188  0.46626678  0.30005351    -0.01400
C1924       C  0.86006006  0.43784033  0.31328599    -0.09500
C1925       C  0.83611966  0.42050402  0.33636423    -0.18300
C1926       C  0.81525188  0.43098065  0.34678117     0.04100
C1927       C  0.81918126  0.45945964  0.33267729     0.18300
C1928       C  0.84374488  0.47695858  0.31013841    -0.19700
C1929       C  0.79867325  0.47047354  0.34123383    -0.21000
C1930       C  0.77468692  0.45420787  0.36429355    -0.19500
C1931       C  0.77096842  0.42682971  0.37974885     0.19700
C1932       C  0.79098703  0.41460515  0.37103102     0.01800
C1933       C  0.78638374  0.38705609  0.38770573    -0.14300
C1934       C  0.76384246  0.37314291  0.41293561    -0.12000
C1935       C  0.74480078  0.38580392  0.42203161     0.01300
C1936       C  0.74791928  0.41215629  0.40468065    -0.24100
H1937       H  0.87502999  0.42861125  0.30537296     0.09300
H1938       H  0.83441900  0.39888464  0.34530075     0.12900
H1939       H  0.84699690  0.49918926  0.30058844     0.11600
H1940       H  0.80135509  0.49197807  0.33019395     0.12800
H1941       H  0.75939372  0.46352677  0.37066890     0.11900
H1942       H  0.80030108  0.37610258  0.38246707     0.08900
H1943       H  0.76153920  0.35247449  0.42564964     0.12200
H1944       H  0.73320949  0.42205560  0.41149260     0.14100
C1945       C  0.90019566  0.03221382  0.80283210    -0.01400
C1946       C  0.92002302  0.06481415  0.80619090    -0.09500
C1947       C  0.91426111  0.08154230  0.83080975    -0.18300
C1948       C  0.88845805  0.06586590  0.85301808     0.04100
C1949       C  0.86968336  0.03238749  0.85065488     0.18300
C1950       C  0.87544550  0.01597519  0.82537746    -0.19700
C1951       C  0.84509331  0.01553162  0.87330474    -0.21000
C1952       C  0.83811410  0.03129419  0.89779881    -0.19500
C1953       C  0.85513975  0.06430560  0.89975846     0.19700
C1954       C  0.88050667  0.08213231  0.87735367     0.01800
C1955       C  0.89626106  0.11546707  0.87977605    -0.14300
C1956       C  0.88746260  0.13037992  0.90376675    -0.12000
C1957       C  0.86280196  0.11266584  0.92615179     0.01300
C1958       C  0.84671019  0.07961098  0.92388874    -0.24100
H1959       H  0.93972687  0.07744959  0.78924275     0.09300
H1960       H  0.93043794  0.10661951  0.83186176     0.12900
H1961       H  0.86070898  0.49079916  0.82313352     0.11600
H1962       H  0.83085229  0.49041277  0.87163951     0.12800
H1963       H  0.81885424  0.01758967  0.91493653     0.11900
H1964       H  0.91518621  0.13071295  0.86322508     0.08900
H1965       H  0.90015950  0.15595933  0.90482362     0.12200
H1966       H  0.82747038  0.06563826  0.94096771     0.14100
C1967       C  0.89940078  0.03455041  0.19858458    -0.01400
C1968       C  0.88218252  0.04934300  0.20736044    -0.09500
C1969       C  0.87393124  0.06458796  0.18332606    -0.18300
C1970       C  0.88322981  0.06613547  0.14955884     0.04100
C1971       C  0.90278270  0.05333185  0.14121499     0.18300
C1972       C  0.91020786  0.03724758  0.16550434    -0.19700
C1973       C  0.91461199  0.05648926  0.10862809    -0.21000
C1974       C  0.90736531  0.07211147  0.08409113    -0.19500
C1975       C  0.88713786  0.08382188  0.09125495     0.19700
C1976       C  0.87411806  0.08027201  0.12389443     0.01800
C1977       C  0.85190937  0.09028292  0.12921550    -0.14300
C1978       C  0.84372234  0.10408473  0.10340534    -0.12000
C1979       C  0.85780136  0.10887716  0.07185463     0.01300
C1980       C  0.87947845  0.09872975  0.06585129    -0.24100
H1981       H  0.87491319  0.04912188  0.23306853     0.09300
H1982       H  0.86076387  0.07543071  0.19208669     0.12900
H1983       H  0.92379019  0.02622609  0.15832287     0.11600
H1984       H  0.92979995  0.04707470  0.10215877     0.12800
H1985       H  0.91716547  0.07452136  0.05917426     0.11900
H1986       H  0.83991428  0.08710756  0.15277791     0.08900
H1987       H  0.82662677  0.11149844  0.10827451     0.12200
H1988       H  0.88981100  0.10178001  0.04110119     0.14100
C1989       C  0.63385597  0.10057982  0.80195030    -0.01400
C1990       C  0.65050167  0.13121274  0.81497105    -0.09500
C1991       C  0.67315794  0.13886614  0.83974261    -0.18300
C1992       C  0.67992919  0.11592087  0.85257142     0.04100
C1993       C  0.66304563  0.08478555  0.83925393     0.18300
C1994       C  0.64006720  0.07734387  0.81434607    -0.19700
C1995       C  0.66948220  0.06144382  0.85060340    -0.21000
C1996       C  0.69268108  0.06851127  0.87466826    -0.19500
C1997       C  0.70959772  0.09892818  0.88835287     0.19700
C1998       C  0.70305688  0.12291329  0.87788632     0.01800
C1999       C  0.71982212  0.15287634  0.89337642    -0.14300
C2000       C  0.74236907  0.15889918  0.91782795    -0.12000
C2001       C  0.74927780  0.13552044  0.92754497     0.01300
C2002       C  0.73289157  0.10554122  0.91267306    -0.24100
H2003       H  0.64583603  0.14944596  0.80607805     0.09300
H2004       H  0.68510103  0.16308337  0.84798782     0.12900
H2005       H  0.62750494  0.05364854  0.80406245     0.11600
H2006       H  0.65672723  0.03766616  0.84055025     0.12800
H2007       H  0.69733555  0.05002796  0.88272367     0.11900
H2008       H  0.71590545  0.17216467  0.88755046     0.08900
H2009       H  0.75465209  0.18219381  0.92908222     0.12200
H2010       H  0.73782250  0.08717701  0.92050659     0.14100
C2011       C  0.88382282  0.24936836  0.92718631    -0.01400
C2012       C  0.86717153  0.26036028  0.90813357    -0.09500
C2013       C  0.88234818  0.28340785  0.88331572    -0.18300
C2014       C  0.91484211  0.29612846  0.87658091     0.04100
C2015       C  0.93147405  0.28466046  0.89584557     0.18300
C2016       C  0.91601377  0.26177807  0.92083161    -0.19700
C2017       C  0.96348310  0.29591298  0.89000002    -0.21000
C2018       C  0.97941584  0.31809972  0.86505068    -0.19500
C2019       C  0.96384889  0.32992732  0.84559377     0.19700
C2020       C  0.93143852  0.31952348  0.85132950     0.01800
C2021       C  0.91722594  0.33311088  0.83159151    -0.14300
C2022       C  0.93442747  0.35573036  0.80709412    -0.12000
C2023       C  0.96608997  0.36524524  0.80115472     0.01300
C2024       C  0.98065202  0.35224509  0.82045091    -0.24100
H2025       H  0.84228359  0.25119523  0.91247325     0.09300
H2026       H  0.86796388  0.29057769  0.86966075     0.12900
H2027       H  0.92919019  0.25341328  0.93524449     0.11600
H2028       H  0.97626799  0.28726820  0.90466281     0.12800
H2029       H  0.00413902  0.32611068  0.86098205     0.11900
H2030       H  0.89296915  0.32692971  0.83461569     0.08900
H2031       H  0.92283169  0.36561342  0.79238107     0.12200
H2032       H  0.00529850  0.35993846  0.81619018     0.14100
C2033       C  0.75117710  0.13825036  0.07390227    -0.01400
C2034       C  0.76078871  0.15092590  0.10602909    -0.09500
C2035       C  0.73878646  0.14326069  0.13168655    -0.18300
C2036       C  0.70622029  0.12321049  0.12562256     0.04100
C2037       C  0.69657517  0.11136030  0.09255572     0.18300
C2038       C  0.71909800  0.11818934  0.06736613    -0.19700
C2039       C  0.66451759  0.09342401  0.08466181    -0.21000
C2040       C  0.64174753  0.08742199  0.10883206    -0.19500
C2041       C  0.65048309  0.09801067  0.14183763     0.19700
C2042       C  0.68284860  0.11523102  0.15091771     0.01800
C2043       C  0.69042214  0.12340615  0.18500026    -0.14300
C2044       C  0.66689942  0.11589844  0.20876835    -0.12000
C2045       C  0.63503154  0.10049324  0.19947751     0.01300
C2046       C  0.62702274  0.09137301  0.16588531    -0.24100
H2047       H  0.78551577  0.16665545  0.11138369     0.09300
H2048       H  0.74790853  0.15415063  0.15570671     0.12900
H2049       H  0.71159940  0.10884462  0.04225599     0.11600
H2050       H  0.65699987  0.08456137  0.05942615     0.12800
H2051       H  0.61712460  0.07405583  0.10176103     0.11900
H2052       H  0.71428103  0.13497151  0.19422394     0.08900
H2053       H  0.67380146  0.12202557  0.23473681     0.12200
H2054       H  0.60252016  0.07936662  0.15826867     0.14100
C2055       C  0.88878515  0.24585053  0.07386272    -0.01400
C2056       C  0.87496794  0.26331419  0.08494286    -0.09500
C2057       C  0.88976892  0.28702248  0.10886949    -0.18300
C2058       C  0.91933861  0.29442632  0.12237865     0.04100
C2059       C  0.93295723  0.27608690  0.11172965     0.18300
C2060       C  0.91754206  0.25193624  0.08782736    -0.19700
C2061       C  0.96201319  0.28221171  0.12473743    -0.21000
C2062       C  0.97788592  0.30619834  0.14810687    -0.19500
C2063       C  0.96513734  0.32471564  0.15897231     0.19700
C2064       C  0.93579270  0.31927658  0.14609598     0.01800
C2065       C  0.92422179  0.33899288  0.15752477    -0.14300
C2066       C  0.94043689  0.36220139  0.18167771    -0.12000
C2067       C  0.96891302  0.36693310  0.19501739     0.01300
C2068       C  0.98143523  0.34848147  0.18294606    -0.24100
H2069       H  0.85250020  0.25870036  0.07492815     0.09300
H2070       H  0.87743827  0.29917892  0.11607551     0.12900
H2071       H  0.92835669  0.23845165  0.07943579     0.11600
H2072       H  0.97254384  0.26835211  0.11677859     0.12800
H2073       H  0.00028609  0.31026826  0.15779704     0.11900
H2074       H  0.90250214  0.33690775  0.14865248     0.08900
H2075       H  0.93006597  0.37589424  0.19063742     0.12200
H2076       H  0.00388457  0.35246921  0.19240875     0.14100
C2077       C  0.53230809  0.13519238  0.80211737    -0.01400
C2078       C  0.52951796  0.12592820  0.83582358    -0.09500
C2079       C  0.54384252  0.14831791  0.86133687    -0.18300
C2080       C  0.56146164  0.18101720  0.85399689     0.04100
C2081       C  0.56364472  0.19037431  0.81987144     0.18300
C2082       C  0.54956266  0.16758203  0.79444960    -0.19700
C2083       C  0.57986558  0.22245543  0.81124777    -0.21000
C2084       C  0.59408386  0.24557237  0.83580907    -0.19500
C2085       C  0.59307658  0.23718911  0.86955200     0.19700
C2086       C  0.57703077  0.20476087  0.87915668     0.01800
C2087       C  0.57790655  0.19756366  0.91340797    -0.14300
C2088       C  0.59431489  0.22149549  0.93688483    -0.12000
C2089       C  0.60959178  0.25327744  0.92727693     0.01300
C2090       C  0.60854837  0.26106936  0.89371122    -0.24100
H2091       H  0.51571107  0.10121553  0.84263894     0.09300
H2092       H  0.54030178  0.13928329  0.88659402     0.12900
H2093       H  0.55228280  0.17517826  0.76849441     0.11600
H2094       H  0.58146212  0.22974724  0.78528357     0.12800
H2095       H  0.60637615  0.27019073  0.82828451     0.11900
H2096       H  0.56673872  0.17368226  0.92274337     0.08900
H2097       H  0.59482641  0.21514990  0.96285747     0.12200
H2098       H  0.62065583  0.28572849  0.88626184     0.14100
C2099       C  0.61394533  0.25064578  0.07127560    -0.01400
C2100       C  0.63065625  0.23972436  0.09029131    -0.09500
C2101       C  0.61546277  0.21626484  0.11454201    -0.18300
C2102       C  0.58288472  0.20307204  0.12080420     0.04100
C2103       C  0.56626715  0.21497949  0.10219680     0.18300
C2104       C  0.58173574  0.23818527  0.07748679    -0.19700
C2105       C  0.53435889  0.20388319  0.10855811    -0.21000
C2106       C  0.51862568  0.18150155  0.13344114    -0.19500
C2107       C  0.53418807  0.16901160  0.15190651     0.19700
C2108       C  0.56632634  0.17896855  0.14527148     0.01800
C2109       C  0.58037043  0.16419544  0.16327705    -0.14300
C2110       C  0.56355048  0.14149202  0.18776262    -0.12000
C2111       C  0.53240406  0.13296663  0.19526916     0.01300
C2112       C  0.51774997  0.14656304  0.17702252    -0.24100
H2113       H  0.65563536  0.24918147  0.08627538     0.09300
H2114       H  0.62996469  0.20931805  0.12830741     0.12900
H2115       H  0.56865306  0.24678793  0.06327514     0.11600
H2116       H  0.52158495  0.21293531  0.09452718     0.12800
H2117       H  0.99405219  0.17377232  0.13814482     0.11900
H2118       H  0.60419430  0.16947376  0.15885456     0.08900
H2119       H  0.57516686  0.13097291  0.20140410     0.12200
H2120       H  0.99336406  0.13938661  0.18221322     0.14100
C2121       C  0.64474574  0.39527985  0.92959210    -0.01400
C2122       C  0.62362847  0.40571750  0.93728508    -0.09500
C2123       C  0.61575195  0.42148300  0.91343988    -0.18300
C2124       C  0.62831990  0.42670536  0.88064066     0.04100
C2125       C  0.64908900  0.41519470  0.87265350     0.18300
C2126       C  0.65771007  0.40032249  0.89735363    -0.19700
C2127       C  0.66058471  0.41805220  0.83993763    -0.21000
C2128       C  0.65160197  0.43179850  0.81487053    -0.19500
C2129       C  0.63176119  0.44396102  0.82217585     0.19700
C2130       C  0.62042650  0.44226904  0.85532754     0.01800
C2131       C  0.60187430  0.45644185  0.86175116    -0.14300
C2132       C  0.59424159  0.47094271  0.83615467    -0.12000
C2133       C  0.60449391  0.47158282  0.80324364     0.01300
C2134       C  0.62326342  0.45794494  0.79650191    -0.24100
H2135       H  0.61327593  0.40183171  0.96208126     0.09300
H2136       H  0.59914658  0.42855024  0.92125358     0.12900
H2137       H  0.67364323  0.39169697  0.89121890     0.11600
H2138       H  0.67620353  0.40912609  0.83356875     0.12800
H2139       H  0.66050002  0.43321688  0.78965660     0.11900
H2140       H  0.59343950  0.45734410  0.88644232     0.08900
H2141       H  0.58063320  0.48215943  0.84237044     0.12200
H2142       H  0.63119213  0.45799994  0.77110154     0.14100
C2143       C  0.75078769  0.36386215  0.93023518    -0.01400
C2144       C  0.78222963  0.38533078  0.93809950    -0.09500
C2145       C  0.80582787  0.39375590  0.91414419    -0.18300
C2146       C  0.79844162  0.38130400  0.88125136     0.04100
C2147       C  0.76617643  0.36096640  0.87302462     0.18300
C2148       C  0.74283271  0.35191621  0.89766354    -0.19700
C2149       C  0.75737583  0.34982353  0.84024379    -0.21000
C2150       C  0.78001075  0.35816774  0.81540657    -0.19500
C2151       C  0.81203272  0.37685042  0.82307074     0.19700
C2152       C  0.82180484  0.38835322  0.85618683     0.01800
C2153       C  0.85450200  0.40563228  0.86291248    -0.14300
C2154       C  0.87649172  0.41116420  0.83776300    -0.12000
C2155       C  0.86673293  0.40022073  0.80497119     0.01300
C2156       C  0.83436572  0.38355061  0.79782538    -0.24100
H2157       H  0.78867513  0.39517191  0.96313432     0.09300
H2158       H  0.82950966  0.41034374  0.92197438     0.12900
H2159       H  0.71833382  0.33595509  0.89137925     0.11600
H2160       H  0.73280355  0.33467699  0.83372924     0.12800
H2161       H  0.77245108  0.34928132  0.79018422     0.11900
H2162       H  0.86381128  0.41430092  0.88759453     0.08900
H2163       H  0.90123863  0.42352596  0.84430100     0.12200
H2164       H  0.82637742  0.37549783  0.77246158     0.14100
C2165       C  0.63458648  0.38504608  0.07421288    -0.01400
C2166       C  0.60438683  0.36961037  0.08824026    -0.09500
C2167       C  0.59600610  0.38439590  0.11278751    -0.18300
C2168       C  0.61786843  0.41512334  0.12423968     0.04100
C2169       C  0.64862621  0.43034232  0.11014479     0.18300
C2170       C  0.65657065  0.41531966  0.08537092    -0.19700
C2171       C  0.67136275  0.46053522  0.12073671    -0.21000
C2172       C  0.66425949  0.47616805  0.14514486    -0.19500
C2173       C  0.63424859  0.46196293  0.15944781     0.19700
C2174       C  0.61048827  0.43129288  0.14918894     0.01800
C2175       C  0.58047819  0.41825988  0.16439758    -0.14300
C2176       C  0.57460502  0.43489233  0.18902208    -0.12000
C2177       C  0.59832468  0.46486181  0.19918025     0.01300
C2178       C  0.62795744  0.47834234  0.18413577    -0.24100
H2179       H  0.58699497  0.34618330  0.07984682     0.09300
H2180       H  0.57229852  0.37114515  0.12224500     0.12900
H2181       H  0.68010477  0.42726224  0.07479843     0.11600
H2182       H  0.69484005  0.47214686  0.11007462     0.12800
H2183       H  0.68290705  0.99877543  0.15464984     0.11900
H2184       H  0.56111143  0.39530589  0.15796757     0.08900
H2185       H  0.55154577  0.42408226  0.20055768     0.12200
H2186       H  0.64645297  0.00111883  0.19284706     0.14100
C2187       C  0.74768489  0.36216223  0.07631232    -0.01400
C2188       C  0.75758539  0.34031347  0.08295506    -0.09500
C2189       C  0.78005094  0.34619502  0.10758225    -0.18300
C2190       C  0.79374354  0.37450247  0.12639669     0.04100
C2191       C  0.78314512  0.39635576  0.12014821     0.18300
C2192       C  0.76028287  0.39000393  0.09534163    -0.19700
C2193       C  0.79558861  0.42449795  0.13852886    -0.21000
C2194       C  0.81851871  0.43154409  0.16289007    -0.19500
C2195       C  0.82975907  0.41074071  0.16927257     0.19700
C2196       C  0.81757056  0.38190384  0.15109348     0.01800
C2197       C  0.82997669  0.36185606  0.15825388    -0.14300
C2198       C  0.85301484  0.36984635  0.18277376    -0.12000
C2199       C  0.86467546  0.39808311  0.20065926     0.01300
C2200       C  0.85319409  0.41858973  0.19372357    -0.24100
H2201       H  0.74792026  0.31841578  0.06896099     0.09300
H2202       H  0.78618764  0.32807775  0.11114754     0.12900
H2203       H  0.75270685  0.40703696  0.09046222     0.11600
H2204       H  0.78756695  0.44122021  0.13398383     0.12800
H2205       H  0.82769174  0.45353216  0.17668376     0.11900
H2206       H  0.82249898  0.33986914  0.14536115     0.08900
H2207       H  0.86197409  0.35394208  0.18770116     0.12200
H2208       H  0.86223389  0.44044158  0.20775325     0.14100
O2209       O  0.72888071  0.87461091  0.97715755    -0.85500
O2210       O  0.67998325  0.88391898  0.95873607    -0.82500
C2211       C  0.65215445  0.87839594  0.95493957     0.98000
O2212       O  0.63033858  0.85906870  0.97396604    -0.82600
O2213       O  0.62215616  0.80117296  0.95510204    -0.85200
C2214       C  0.62692008  0.77821494  0.95252135     1.02500
O2215       O  0.64525002  0.77531975  0.97270281    -0.78000
O2216       O  0.70360191  0.82646719  0.95690569    -0.78200
C2217       C  0.72624675  0.85448905  0.95557722     1.02400
O2218       O  0.71166741  0.87248579  0.04608694    -0.85500
O2219       O  0.66656987  0.88763092  0.02836676    -0.82600
C2220       C  0.64348869  0.87051048  0.04725873     0.98000
O2221       O  0.62751076  0.84112229  0.04273888    -0.82600
O2222       O  0.61417724  0.78170876  0.02482432    -0.85200
C2223       C  0.63024368  0.77530190  0.04503051     1.02500
O2224       O  0.65978440  0.78888433  0.04221899    -0.78000
O2225       O  0.71994934  0.83513160  0.02722948    -0.78200
C2226       C  0.72511901  0.85629943  0.04872643     1.02400
Cr2227     Cr  0.69469631  0.87663371  0.00244053     1.93700
Cr2228     Cr  0.62658393  0.82176983  0.99917343     1.93200
Cr2229     Cr  0.68122341  0.80849350  0.99970477     1.39100
O2230       O  0.66745155  0.83563822  0.00067171    -1.23200
O2231       O  0.82219453  0.61910279  0.04232428    -0.85500
O2232       O  0.77174835  0.62651666  0.02589149    -0.82500
C2233       C  0.77503806  0.64713691  0.04714286     0.98000
O2234       O  0.79756403  0.67506254  0.04461671    -0.82600
O2235       O  0.85471285  0.72532042  0.02744828    -0.85200
C2236       C  0.87390373  0.72283014  0.04667045     1.02500
O2237       O  0.88050357  0.70125051  0.04214327    -0.78000
O2238       O  0.87092676  0.64266265  0.02409943    -0.78200
C2239       C  0.85012036  0.62466701  0.04485320     1.02400
O2240       O  0.83272492  0.61261389  0.97255172    -0.85500
O2241       O  0.78656962  0.62689256  0.95653297    -0.82600
C2242       C  0.77314579  0.64310167  0.95413159     0.98000
O2243       O  0.77936334  0.66524043  0.97470473    -0.82600
O2244       O  0.83889362  0.71231210  0.95784369    -0.85200
C2245       C  0.86830525  0.72557279  0.95366894     1.02500
O2246       O  0.88487500  0.71887519  0.97270226    -0.78000
O2247       O  0.87006950  0.65869115  0.95493631    -0.78200
C2248       C  0.85470549  0.62904712  0.95213791     1.02400
Cr2249     Cr  0.80542019  0.62435016  0.99932086     1.93700
Cr2250     Cr  0.81859727  0.69243418  0.00103318     1.93200
Cr2251     Cr  0.87350007  0.67933336  0.99851386     1.39100
O2252       O  0.83255695  0.66546053  0.99936241    -1.23200
C2253       C  0.97080872  0.00031403  0.25101025     0.02100
C2254       C  0.97037148  0.97105809  0.25092079     0.02100
C2255       C  0.49903485  0.97060095  0.25071078     0.02100
C2256       C  0.52806555  0.99939968  0.25076601     0.02100
C2257       C  0.52862935  0.52875025  0.25017149     0.02100
C2258       C  0.50002083  0.52932229  0.25052582     0.02100
C2259       C  0.90573055  0.51637200  0.22378033     0.03000
C2260       C  0.93417207  0.51608774  0.22446717    -0.13200
C2261       C  0.94068790  0.50093747  0.25062308     0.00500
C2262       C  0.91846770  0.98587270  0.27658494    -0.11700
C2263       C  0.88908572  0.98425177  0.27520983     0.03000
C2264       C  0.88283977  0.49915318  0.24810096    -0.11100
H2265       H  0.95171432  0.52827656  0.20522683     0.08600
H2266       H  0.92407315  0.97521021  0.29735689     0.06100
H2267       H  0.85982611  0.49697933  0.24594320     0.05900
C2268       C  0.60846324  0.51354027  0.27673988     0.03000
C2269       C  0.57996068  0.51363919  0.27688760    -0.13200
C2270       C  0.55809814  0.49903147  0.25086494     0.00500
C2271       C  0.56472985  0.98370118  0.22528757    -0.11700
C2272       C  0.59221144  0.98174467  0.22613817     0.03000
C2273       C  0.61421279  0.49711842  0.25154043    -0.11100
H2274       H  0.57493026  0.52534638  0.29703303     0.08600
H2275       H  0.54831159  0.97321273  0.20463560     0.06100
H2276       H  0.63594577  0.49638289  0.25184925     0.05900
C2277       C  0.61079266  0.59405212  0.22543969     0.03000
C2278       C  0.58144973  0.56601392  0.22450442    -0.13200
C2279       C  0.55933723  0.55889712  0.25030704     0.00500
C2280       C  0.56659669  0.58007212  0.27695507    -0.11700
C2281       C  0.59502220  0.60877312  0.27742841     0.03000
C2282       C  0.61693314  0.61561108  0.25162296    -0.11100
H2283       H  0.57601814  0.54918874  0.20437265     0.08600
H2284       H  0.54994152  0.57411185  0.29733731     0.06100
H2285       H  0.63866386  0.63810285  0.25164146     0.05900
C2286       C  0.51555624  0.61029999  0.22243210     0.03000
C2287       C  0.51562790  0.58165904  0.22370656    -0.13200
C2288       C  0.50054256  0.56014573  0.24996970     0.00500
C2289       C  0.98500518  0.56744952  0.27494473    -0.11700
C2290       C  0.98356003  0.59534487  0.27315103     0.03000
C2291       C  0.49919955  0.61690921  0.24708226    -0.11100
H2292       H  0.52715394  0.57591729  0.20399602     0.08600
H2293       H  0.97357553  0.55113850  0.29551798     0.06100
H2294       H  0.49862273  0.63878602  0.24601097     0.05900
C2295       C  0.88838853  0.90544825  0.22714379     0.03000
C2296       C  0.88228944  0.88380173  0.25311488    -0.13200
C2297       C  0.90473795  0.89038852  0.27824649     0.00500
C2298       C  0.93316657  0.91914314  0.27768440    -0.11700
C2299       C  0.93981955  0.94077134  0.25147687     0.03000
C2300       C  0.91734718  0.93365982  0.22608277    -0.11100
H2301       H  0.86018194  0.86163243  0.25350917     0.08600
H2302       H  0.95020973  0.92467906  0.29761602     0.06100
H2303       H  0.92243994  0.95001545  0.20547988     0.05900
C2304       C  0.98480284  0.89000520  0.22278539     0.03000
C2305       C  0.49896857  0.88264623  0.24925312    -0.13200
C2306       C  0.51406435  0.90395941  0.27570740     0.00500
C2307       C  0.51320095  0.93229980  0.27629182    -0.11700
C2308       C  0.49876125  0.93988555  0.25031040     0.03000
C2309       C  0.98512212  0.91891712  0.22336240    -0.11100
H2310       H  0.49746453  0.85978371  0.24964350     0.08600
H2311       H  0.52449198  0.94913065  0.29640974     0.06100
H2312       H  0.97500948  0.92537809  0.20276990     0.05900
O2313       O  0.85346440  0.62490184  0.52423706    -0.85500
O2314       O  0.79626997  0.61874841  0.54215962    -0.82500
C2315       C  0.77510795  0.62601111  0.54598158     0.98000
O2316       O  0.77206039  0.64372491  0.52497234    -0.82600
O2317       O  0.82109581  0.70105085  0.54267925    -0.85200
C2318       C  0.84911572  0.72257816  0.54742055     1.02500
O2319       O  0.87097758  0.72465554  0.52871666    -0.78000
O2320       O  0.87735150  0.67320620  0.54375106    -0.78200
C2321       C  0.87158876  0.64506003  0.54537493     1.02400
O2322       O  0.83846434  0.62658524  0.45539204    -0.85500
O2323       O  0.77873818  0.61321859  0.47264136    -0.82600
C2324       C  0.77405655  0.63006320  0.45188982     0.98000
O2325       O  0.78810089  0.65963393  0.45535443    -0.82600
O2326       O  0.83385865  0.71912371  0.47376717    -0.85200
C2327       C  0.85661938  0.72531558  0.45440378     1.02500
O2328       O  0.87275551  0.71198463  0.45835543    -0.72800
O2329       O  0.88454368  0.66408379  0.47311823    -0.78200
C2330       C  0.86802443  0.64229302  0.45234332     1.02400
Cr2331     Cr  0.81773519  0.62392821  0.49871327     1.93700
Cr2332     Cr  0.80579599  0.67974142  0.49912410     1.93200
Cr2333     Cr  0.87339021  0.69152091  0.50093197     1.39100
O2334       O  0.83238046  0.66517485  0.49943995    -1.23200
O2335       O  0.61947853  0.82101631  0.45682256    -0.85500
O2336       O  0.62779935  0.77166683  0.47532451    -0.82500
C2337       C  0.64867364  0.77343148  0.45547361     0.98000
O2338       O  0.67684531  0.79526579  0.45843569    -0.82600
O2339       O  0.72594504  0.85435999  0.47151146    -0.85200
C2340       C  0.72236099  0.87188474  0.45064826     1.02500
O2341       O  0.70073524  0.87844951  0.45460871    -0.78000
O2342       O  0.64300475  0.87034593  0.47333191    -0.78200
C2343       C  0.62429904  0.84873554  0.45374358     1.02400
O2344       O  0.61449365  0.83381649  0.52643643    -0.85500
O2345       O  0.62862990  0.78818082  0.54427676    -0.82600
C2346       C  0.64517904  0.77531212  0.54847141     0.98000
O2347       O  0.66789510  0.78152554  0.52893644    -0.82600
O2348       O  0.71388924  0.84263025  0.54234352    -0.85200
C2349       C  0.72751209  0.87235047  0.54407149     1.02500
O2350       O  0.72053263  0.88765942  0.52348025    -0.78000
O2351       O  0.66030786  0.87331702  0.54207465    -0.78200
C2352       C  0.63086875  0.85678463  0.54586523     1.02400
Cr2353     Cr  0.62578206  0.80582893  0.50065202     1.93700
Cr2354     Cr  0.69404127  0.81951365  0.50035190     1.93200
Cr2355     Cr  0.68019139  0.87426554  0.49849572     1.39100
O2356       O  0.66668661  0.83314899  0.50003042    -1.23200
C2357       C  0.52841789  0.99927086  0.74897589     0.02100
C2358       C  0.99934903  0.97044680  0.74871046     0.02100
C2359       C  0.97057815  0.97071375  0.74885215     0.02100
C2360       C  0.97103081  0.99993704  0.74916714     0.02100
C2361       C  0.00015516  0.52862712  0.75033000     0.02100
C2362       C  0.52878097  0.52815951  0.75005746     0.02100
C2363       C  0.61057538  0.51726258  0.72384365     0.03000
C2364       C  0.61807095  0.00384332  0.75050355    -0.13200
C2365       C  0.59614311  0.98701889  0.77574562     0.00500
C2366       C  0.56669764  0.98537153  0.77494169    -0.11700
C2367       C  0.55885713  0.99925082  0.74852869     0.03000
C2368       C  0.58058592  0.51418637  0.72253785    -0.11100
H2369       H  0.64156334  0.00712168  0.75226574     0.08600
H2370       H  0.54972536  0.97323942  0.79471120     0.06100
H2371       H  0.57421683  0.52409258  0.70164869     0.05900
C2372       C  0.89019938  0.98545126  0.72380252     0.03000
C2373       C  0.88372933  0.00027880  0.75022929    -0.13200
C2374       C  0.90611599  0.51520094  0.77623398     0.00500
C2375       C  0.93425016  0.51455168  0.77581079    -0.11700
C2376       C  0.94088351  0.00021889  0.74914563     0.03000
C2377       C  0.91893928  0.98582366  0.72308555    -0.11100
H2378       H  0.86174802  0.00053518  0.75057610     0.08600
H2379       H  0.95103153  0.52545604  0.79610361     0.06100
H2380       H  0.92418430  0.97484337  0.70236202     0.05900
C2381       C  0.51697561  0.61124394  0.77514497     0.03000
C2382       C  0.00270078  0.61786276  0.74815415    -0.13200
C2383       C  0.98692189  0.59558129  0.72260275     0.00500
C2384       C  0.98669848  0.56676726  0.72362536    -0.11700
C2385       C  0.00066718  0.55951398  0.75028600     0.03000
C2386       C  0.51540366  0.58166888  0.77625167    -0.11100
H2387       H  0.00361631  0.64043714  0.74727046     0.08600
H2388       H  0.97495687  0.54935799  0.70409905     0.06100
H2389       H  0.52622151  0.57604166  0.79682572     0.05900
C2390       C  0.61034847  0.59329354  0.77546437     0.03000
C2391       C  0.58120753  0.56522492  0.77600633    -0.13200
C2392       C  0.55931421  0.55837826  0.75008363     0.00500
C2393       C  0.56647579  0.58014494  0.72394392    -0.11700
C2394       C  0.59494375  0.60881620  0.72388579     0.03000
C2395       C  0.61702375  0.61500095  0.74930940    -0.11100
H2396       H  0.57544099  0.54873041  0.79660181     0.08600
H2397       H  0.54976633  0.57479241  0.70370266     0.06100
H2398       H  0.63929284  0.63698560  0.74894655     0.05900
C2399       C  0.51509903  0.90483589  0.72320780     0.03000
C2400       C  0.51383815  0.93287180  0.72266093    -0.13200
C2401       C  0.99912854  0.93993808  0.74865587     0.00500
C2402       C  0.98438986  0.91814542  0.77470406    -0.11700
C2403       C  0.98401347  0.88932164  0.77479792     0.03000
C2404       C  0.50007329  0.88310717  0.74950320    -0.11100
H2405       H  0.52426714  0.94932304  0.70200541     0.08600
H2406       H  0.97310740  0.92361187  0.79491257     0.06100
H2407       H  0.50049437  0.86115233  0.75015553     0.05900
C2408       C  0.90298703  0.88909588  0.72504925     0.03000
C2409       C  0.93145669  0.91807894  0.72374003    -0.13200
C2410       C  0.93983774  0.94035271  0.74967513     0.00500
C2411       C  0.91886268  0.93404695  0.77639947    -0.11700
C2412       C  0.88972485  0.90591410  0.77741425     0.03000
C2413       C  0.88259042  0.88323010  0.75224665    -0.11100
H2414       H  0.94718107  0.92355446  0.70257609     0.08600
H2415       H  0.92509346  0.95158631  0.79592177     0.06100
H2416       H  0.86123166  0.86056080  0.75424954     0.05900
C2417       C  0.63738383  0.75180540  0.57550575    -0.01400
C2418       C  0.60856524  0.73900584  0.59242104    -0.09500
C2419       C  0.60051492  0.71568245  0.61681998    -0.18300
C2420       C  0.62127180  0.70447039  0.62524452     0.04100
C2421       C  0.65077813  0.71806549  0.60847424     0.18300
C2422       C  0.65844934  0.74133148  0.58386205    -0.19700
C2423       C  0.67245603  0.70827505  0.61618331    -0.21000
C2424       C  0.66545875  0.68510910  0.64023140    -0.19500
C2425       C  0.63653273  0.67102390  0.65695934     0.19700
C2426       C  0.61388223  0.68031912  0.64963541     0.01800
C2427       C  0.58479741  0.66486122  0.66691133    -0.14300
C2428       C  0.57866914  0.64141659  0.69054847    -0.12000
C2429       C  0.60125980  0.63276361  0.69787971     0.01300
C2430       C  0.63011254  0.64759877  0.68100425    -0.24100
H2431       H  0.59187457  0.74669511  0.58642749     0.09300
H2432       H  0.57787958  0.70693513  0.62855975     0.12900
H2433       H  0.68094217  0.75126725  0.57110330     0.11600
H2434       H  0.69500469  0.71861630  0.60351556     0.12800
H2435       H  0.68274934  0.67804756  0.64567085     0.11900
H2436       H  0.56626747  0.67024901  0.66274026     0.08900
H2437       H  0.55632060  0.63032474  0.70360896     0.12200
H2438       H  0.64750738  0.64065930  0.68645337     0.14100
C2439       C  0.53138755  0.89792068  0.69595729    -0.01400
C2440       C  0.51822006  0.86721344  0.68329223    -0.09500
C2441       C  0.53341866  0.85993180  0.65838452    -0.18300
C2442       C  0.56265977  0.88327252  0.64518386     0.04100
C2443       C  0.57542637  0.91476841  0.65700169     0.18300
C2444       C  0.55987740  0.92177710  0.68232373    -0.19700
C2445       C  0.60369795  0.93892956  0.64363571    -0.21000
C2446       C  0.61998813  0.93232118  0.61931817    -0.19500
C2447       C  0.60855704  0.90132016  0.60802123     0.19700
C2448       C  0.57964605  0.87638805  0.62077618     0.01800
C2449       C  0.56915445  0.84545072  0.60894807    -0.14300
C2450       C  0.58623219  0.83957430  0.58509489    -0.12000
C2451       C  0.61451797  0.86407065  0.57237324     0.01300
C2452       C  0.62579430  0.89495735  0.58407652    -0.24100
H2453       H  0.49577123  0.84860765  0.69250525     0.09300
H2454       H  0.52145213  0.83576547  0.64997329     0.12900
H2455       H  0.57032668  0.94570623  0.69189488     0.11600
H2456       H  0.61329846  0.96308341  0.65209051     0.12800
H2457       H  0.64184908  0.95152690  0.60957665     0.11900
H2458       H  0.54793030  0.82511589  0.61768641     0.08900
H2459       H  0.57723670  0.81548654  0.57662890     0.12200
H2460       H  0.64761917  0.91406141  0.57411470     0.14100
C2461       C  0.86708402  0.96973820  0.69675563    -0.01400
C2462       C  0.86312878  0.98770160  0.67198558    -0.09500
C2463       C  0.84138416  0.97298796  0.64608514    -0.18300
C2464       C  0.82260712  0.93963019  0.64449865     0.04100
C2465       C  0.82698638  0.92161165  0.66985120     0.18300
C2466       C  0.84922441  0.93676352  0.69551969    -0.19700
C2467       C  0.80905322  0.88859771  0.66953502    -0.21000
C2468       C  0.78673993  0.87294329  0.64458282    -0.19500
C2469       C  0.78165379  0.88990320  0.61939155     0.19700
C2470       C  0.79952412  0.92350047  0.61891764     0.01800
C2471       C  0.79324569  0.93943124  0.59303468    -0.14300
C2472       C  0.77003667  0.92275228  0.56898093    -0.12000
C2473       C  0.75235033  0.88965594  0.56961727     0.01300
C2474       C  0.75851826  0.87339991  0.59482749    -0.24100
H2475       H  0.87711466  0.01326662  0.67260277     0.09300
H2476       H  0.83979670  0.98839375  0.62780520     0.12900
H2477       H  0.85251653  0.92295404  0.71479248     0.11600
H2478       H  0.81219908  0.87477549  0.68884450     0.12800
H2479       H  0.77319620  0.84735052  0.64512878     0.11900
H2480       H  0.80569249  0.96479207  0.59075601     0.08900
H2481       H  0.76595044  0.93597049  0.54972324     0.12200
H2482       H  0.74502116  0.84779951  0.59561824     0.14100
C2483       C  0.88696974  0.63579074  0.57112413    -0.01400
C2484       C  0.89575838  0.61321560  0.56388525    -0.09500
C2485       C  0.91170504  0.60539954  0.58766272    -0.18300
C2486       C  0.91876352  0.61961087  0.61978360     0.04100
C2487       C  0.90799371  0.64105120  0.62752899     0.18300
C2488       C  0.89296114  0.64947676  0.60301917    -0.19700
C2489       C  0.91220879  0.65392768  0.65972013    -0.21000
C2490       C  0.92710748  0.64611116  0.68445417    -0.19500
C2491       C  0.93930901  0.62630354  0.67718168     0.19700
C2492       C  0.93588373  0.61321744  0.64458813     0.01800
C2493       C  0.95046003  0.59505734  0.63807100    -0.14300
C2494       C  0.96745392  0.58993867  0.66302856    -0.12000
C2495       C  0.96982094  0.60196799  0.69555774     0.01300
C2496       C  0.95529294  0.61987677  0.70234927    -0.24100
H2497       H  0.89090517  0.60207281  0.53942159     0.09300
H2498       H  0.91781364  0.58788945  0.58037073     0.12900
H2499       H  0.88545244  0.66638375  0.60890615     0.11600
H2500       H  0.90369431  0.66995566  0.66589175     0.12800
H2501       H  0.92977085  0.65625237  0.70925614     0.11900
H2502       H  0.94996453  0.58532595  0.61365899     0.08900
H2503       H  0.97909238  0.57678755  0.65654880     0.12200
H2504       H  0.95617775  0.62883188  0.72742804     0.14100
C2505       C  0.75290678  0.61292836  0.57427087    -0.01400
C2506       C  0.73462547  0.62640679  0.58359321    -0.09500
C2507       C  0.71209481  0.61288831  0.60892913    -0.18300
C2508       C  0.70679301  0.58497183  0.62534823     0.04100
C2509       C  0.72621190  0.57209931  0.61640343     0.18300
C2510       C  0.74922031  0.58636541  0.59149008    -0.19700
C2511       C  0.72197276  0.54445098  0.63159258    -0.21000
C2512       C  0.69816974  0.52862278  0.65485304    -0.19500
C2513       C  0.67835905  0.54033225  0.66382921     0.19700
C2514       C  0.68254351  0.56890152  0.64968520     0.01800
C2515       C  0.66196052  0.57972142  0.66021919    -0.14300
C2516       C  0.63832566  0.56279226  0.68381899    -0.12000
C2517       C  0.63438423  0.53459255  0.69748812     0.01300
C2518       C  0.65433176  0.52345272  0.68700909    -0.24100
H2519       H  0.73755180  0.64738909  0.57102472     0.09300
H2520       H  0.69879174  0.62443510  0.61453667     0.12900
H2521       H  0.76345728  0.57595890  0.58456461     0.11600
H2522       H  0.73678076  0.53463769  0.62493667     0.12800
H2523       H  0.69512742  0.50694025  0.66579361     0.11900
H2524       H  0.66367083  0.60125902  0.65095330     0.08900
H2525       H  0.62351997  0.57216765  0.69188973     0.12200
H2526       H  0.65113872  0.50136773  0.69696558     0.14100
C2527       C  0.85616792  0.74624588  0.57418068    -0.01400
C2528       C  0.83165940  0.74786104  0.59043138    -0.09500
C2529       C  0.83801178  0.77074450  0.61487763    -0.18300
C2530       C  0.86932836  0.79283321  0.62412857     0.04100
C2531       C  0.89408164  0.79064319  0.60810498     0.18300
C2532       C  0.88734519  0.76771592  0.58326772    -0.19700
C2533       C  0.92545790  0.81133677  0.61696798    -0.21000
C2534       C  0.93285647  0.83409742  0.64161828    -0.19500
C2535       C  0.90911173  0.83711531  0.65763592     0.19700
C2536       C  0.87701420  0.81684640  0.64881027     0.01800
C2537       C  0.85410087  0.82174556  0.66484670    -0.14300
C2538       C  0.86270200  0.84541227  0.68888795    -0.12000
C2539       C  0.89430796  0.86477833  0.69832094     0.01300
C2540       C  0.91737648  0.86039940  0.68243121    -0.24100
H2541       H  0.80733027  0.73153120  0.58398846     0.09300
H2542       H  0.81787372  0.77034901  0.62620008     0.12900
H2543       H  0.90649370  0.76653347  0.57107030     0.11600
H2544       H  0.94444186  0.80978882  0.60488386     0.12800
H2545       H  0.95737530  0.84966170  0.64797899     0.11900
H2546       H  0.82936745  0.80801786  0.65905077     0.08900
H2547       H  0.84434773  0.84864578  0.69993456     0.12200
H2548       H  0.94186904  0.87482556  0.68965504     0.14100
C2549       C  0.60712386  0.85610174  0.42840143    -0.01400
C2550       C  0.59687776  0.87738395  0.43628002    -0.09500
C2551       C  0.58134961  0.88556553  0.41250311    -0.18300
C2552       C  0.57616111  0.87311920  0.37961762     0.04100
C2553       C  0.58727146  0.85199742  0.37155704     0.18300
C2554       C  0.60189279  0.84307467  0.39617955    -0.19700
C2555       C  0.58429852  0.84047100  0.33883078    -0.21000
C2556       C  0.57079595  0.84973462  0.31380168    -0.19500
C2557       C  0.55889251  0.86981577  0.32118744     0.19700
C2558       C  0.56083073  0.88128748  0.35433813     0.01800
C2559       C  0.54691432  0.90004750  0.36085728    -0.14300
C2560       C  0.53173296  0.90709102  0.33554957    -0.12000
C2561       C  0.53048936  0.89644995  0.30261140     0.01300
C2562       C  0.54464945  0.87814825  0.29564494    -0.24100
H2563       H  0.60080422  0.88769139  0.46112962     0.09300
H2564       H  0.57444777  0.90230279  0.42044713     0.12900
H2565       H  0.61026047  0.82691353  0.38996209     0.11600
H2566       H  0.59291420  0.82456949  0.33242759     0.12800
H2567       H  0.56920138  0.84072475  0.28859566     0.11900
H2568       H  0.54645315  0.90885089  0.38549885     0.08900
H2569       H  0.52033052  0.92041781  0.34220925     0.12200
H2570       H  0.54460797  0.87019774  0.27026123     0.14100
C2571       C  0.89883679  0.86676417  0.30446157    -0.01400
C2572       C  0.92137991  0.85791811  0.31119729    -0.09500
C2573       C  0.91554656  0.83464719  0.33494439    -0.18300
C2574       C  0.88685766  0.81963238  0.35295748     0.04100
C2575       C  0.86433717  0.82926933  0.34637393     0.18300
C2576       C  0.87040927  0.85244294  0.32214203    -0.19700
C2577       C  0.83591262  0.81579433  0.36403669    -0.21000
C2578       C  0.82932836  0.79294315  0.38832349    -0.19500
C2579       C  0.85086945  0.78280083  0.39524294     0.19700
C2580       C  0.87979706  0.79566439  0.37744590     0.01800
C2581       C  0.90030013  0.78390550  0.38495562    -0.14300
C2582       C  0.89263767  0.76087044  0.40960748    -0.12000
C2583       C  0.86447092  0.74894418  0.42759754     0.01300
C2584       C  0.84361131  0.75986406  0.42004713    -0.24100
H2585       H  0.94343662  0.86869514  0.29755538     0.09300
H2586       H  0.93401147  0.82908983  0.33867290     0.12900
H2587       H  0.85309181  0.85958965  0.31715675     0.11600
H2588       H  0.81873423  0.82313058  0.35918256     0.12800
H2589       H  0.80719663  0.78309910  0.40177575     0.11900
H2590       H  0.92238276  0.79193205  0.37222456     0.08900
H2591       H  0.90903100  0.75262880  0.41483431     0.12200
H2592       H  0.82151606  0.75045979  0.43352579     0.14100
C2593       C  0.88373324  0.63468101  0.42508013    -0.01400
C2594       C  0.86661351  0.60825481  0.40442015    -0.09500
C2595       C  0.88157731  0.60084563  0.37907062    -0.18300
C2596       C  0.91433597  0.61990473  0.37337215     0.04100
C2597       C  0.93139088  0.64709018  0.39389020     0.18300
C2598       C  0.91614692  0.65394962  0.41956608    -0.19700
C2599       C  0.96359107  0.66747253  0.38859145    -0.21000
C2600       C  0.97931682  0.66162830  0.36311948    -0.19500
C2601       C  0.96342966  0.63479612  0.34288005     0.19700
C2602       C  0.93080050  0.61319314  0.34800339     0.01800
C2603       C  0.91632516  0.58563042  0.32787967    -0.14300
C2604       C  0.93356211  0.57995838  0.30372973    -0.12000
C2605       C  0.96545324  0.60172358  0.29844162     0.01300
C2606       C  0.98019391  0.62918914  0.31786501    -0.24100
H2607       H  0.84150027  0.59306262  0.40794290     0.09300
H2608       H  0.86681882  0.58027820  0.36412980     0.12900
H2609       H  0.92962876  0.67463629  0.43513820     0.11600
H2610       H  0.97668097  0.68827746  0.40409594     0.12800
H2611       H  0.00421392  0.67802003  0.35950725     0.11900
H2612       H  0.89193172  0.56775553  0.33062069     0.08900
H2613       H  0.92189177  0.55852233  0.28892516     0.12200
H2614       H  0.00503702  0.64579157  0.31406278     0.14100
C2615       C  0.63989784  0.74914730  0.42928939    -0.01400
C2616       C  0.60856952  0.73137021  0.41857447    -0.09500
C2617       C  0.59992636  0.70810175  0.39407849    -0.18300
C2618       C  0.62245354  0.70154650  0.37981377     0.04100
C2619       C  0.65408272  0.71921736  0.39140929     0.18300
C2620       C  0.66256027  0.74307556  0.41544974    -0.19700
C2621       C  0.67702749  0.71273870  0.37927450    -0.21000
C2622       C  0.66927393  0.68898361  0.35580081    -0.19500
C2623       C  0.63858593  0.67174629  0.34322945     0.19700
C2624       C  0.61474894  0.67795442  0.35474152     0.01800
C2625       C  0.58439563  0.66056059  0.34031324    -0.14300
C2626       C  0.57808373  0.63801112  0.31556243    -0.12000
C2627       C  0.60163067  0.63188132  0.30455910     0.01300
C2628       C  0.63173376  0.64860723  0.31877292    -0.24100
H2629       H  0.59062207  0.73561462  0.42903861     0.09300
H2630       H  0.57537191  0.69537386  0.38726986     0.12900
H2631       H  0.68677224  0.75646669  0.42400440     0.11600
H2632       H  0.70110470  0.72596700  0.38822272     0.12800
H2633       H  0.68752255  0.68435655  0.34706325     0.11900
H2634       H  0.56520520  0.66427790  0.34702617     0.08900
H2635       H  0.55479136  0.62577801  0.30444567     0.12200
H2636       H  0.64998130  0.64372846  0.31059822     0.14100
C2637       C  0.75118168  0.61462025  0.42436933    -0.01400
C2638       C  0.74068599  0.63150151  0.40500225    -0.09500
C2639       C  0.71795718  0.61635837  0.38006107    -0.18300
C2640       C  0.70506222  0.58368707  0.37364819     0.04100
C2641       C  0.71673234  0.56703226  0.39259107     0.18300
C2642       C  0.73935726  0.58248663  0.41766926    -0.19700
C2643       C  0.70559233  0.53493831  0.38666574    -0.21000
C2644       C  0.68271843  0.51876190  0.36247496    -0.19500
C2645       C  0.67012533  0.53419951  0.34399115     0.19700
C2646       C  0.68095650  0.56686387  0.34934198     0.01800
C2647       C  0.66676224  0.58103208  0.33053797    -0.14300
C2648       C  0.64291241  0.56346260  0.30747031    -0.12000
C2649       C  0.63275993  0.53149228  0.30214382     0.01300
C2650       C  0.64649472  0.51700564  0.32032544    -0.24100
H2651       H  0.74971124  0.65644268  0.40946832     0.09300
H2652       H  0.71097570  0.63087052  0.36630354     0.12900
H2653       H  0.74770129  0.56930546  0.43215202     0.11600
H2654       H  0.71458370  0.52221464  0.40092018     0.12800
H2655       H  0.67453388  0.49389365  0.35849131     0.11900
H2656       H  0.67330972  0.60550486  0.33326884     0.08900
H2657       H  0.63264365  0.57501695  0.29330898     0.12200
H2658       H  0.63887723  0.99238376  0.31626580     0.14100
C2659       C  0.86443927  0.96648178  0.30076921    -0.01400
C2660       C  0.86019246  0.93800244  0.31392965    -0.09500
C2661       C  0.83626405  0.92068515  0.33702434    -0.18300
C2662       C  0.81545739  0.93121187  0.34751761     0.04100
C2663       C  0.81945551  0.95974750  0.33350026     0.18300
C2664       C  0.84404717  0.97726009  0.31097991    -0.19700
C2665       C  0.79893587  0.97075101  0.34205931    -0.21000
C2666       C  0.77482318  0.95437032  0.36496696    -0.19500
C2667       C  0.77102812  0.92692110  0.38032904     0.19700
C2668       C  0.79113182  0.91477664  0.37169305     0.01800
C2669       C  0.78653791  0.88722715  0.38835603    -0.14300
C2670       C  0.76384627  0.87316479  0.41341623    -0.12000
C2671       C  0.74464076  0.88567408  0.42236933     0.01300
C2672       C  0.74781346  0.91208699  0.40508388    -0.24100
H2673       H  0.87506286  0.92868822  0.30590655     0.09300
H2674       H  0.83447413  0.89899430  0.34584844     0.12900
H2675       H  0.84734616  0.99952340  0.30147825     0.11600
H2676       H  0.80166553  0.99229958  0.33108811     0.12800
H2677       H  0.75948614  0.96364896  0.37129549     0.11900
H2678       H  0.80058683  0.87639110  0.38325329     0.08900
H2679       H  0.76155783  0.85249692  0.42611680     0.12200
H2680       H  0.73301278  0.92190325  0.41181352     0.14100
C2681       C  0.90056948  0.53233652  0.80310950    -0.01400
C2682       C  0.92063758  0.56488236  0.80663810    -0.09500
C2683       C  0.91492485  0.58168291  0.83121652    -0.18300
C2684       C  0.88893119  0.56613330  0.85321055     0.04100
C2685       C  0.86989966  0.53268927  0.85068420     0.18300
C2686       C  0.87561880  0.51621296  0.82545265    -0.19700
C2687       C  0.84508833  0.51593109  0.87311576    -0.21000
C2688       C  0.83813751  0.53176635  0.89754244    -0.19500
C2689       C  0.85541518  0.56476074  0.89964255     0.19700
C2690       C  0.88101886  0.58249019  0.87747413     0.01800
C2691       C  0.89703091  0.61582543  0.88004192    -0.14300
C2692       C  0.88821511  0.63082430  0.90392155    -0.12000
C2693       C  0.86328909  0.61319125  0.92605130     0.01300
C2694       C  0.84698453  0.58014432  0.92366703    -0.24100
H2695       H  0.94048174  0.57742717  0.78983879     0.09300
H2696       H  0.93127835  0.60671525  0.83240087     0.12900
H2697       H  0.86073768  0.99052681  0.82318936     0.11600
H2698       H  0.83105717  0.98999134  0.87195372     0.12800
H2699       H  0.81869696  0.51813805  0.91450554     0.11900
H2700       H  0.91617154  0.63100640  0.86368296     0.08900
H2701       H  0.90110457  0.65639810  0.90509868     0.12200
H2702       H  0.82755235  0.56623281  0.94055631     0.14100
C2703       C  0.89957989  0.53472353  0.19820652    -0.01400
C2704       C  0.88217770  0.54932656  0.20694618    -0.09500
C2705       C  0.87404708  0.56468920  0.18294842    -0.18300
C2706       C  0.88364736  0.56654591  0.14925752     0.04100
C2707       C  0.90336205  0.55391669  0.14096743     0.18300
C2708       C  0.91067695  0.53771804  0.16521802    -0.19700
C2709       C  0.91545082  0.55735260  0.10847065    -0.21000
C2710       C  0.90827241  0.57304823  0.08395756    -0.19500
C2711       C  0.88788057  0.58457538  0.09105656     0.19700
C2712       C  0.87465051  0.58079497  0.12361734     0.01800
C2713       C  0.85234224  0.59068346  0.12888311    -0.14300
C2714       C  0.84419690  0.60451630  0.10308414    -0.12000
C2715       C  0.85840355  0.60945495  0.07159546     0.01300
C2716       C  0.88024351  0.59950396  0.06565772    -0.24100
H2717       H  0.87467815  0.54887554  0.23260154     0.09300
H2718       H  0.86072350  0.57536745  0.19169218     0.12900
H2719       H  0.92440094  0.52684029  0.15807043     0.11600
H2720       H  0.93076775  0.54807758  0.10204917     0.12800
H2721       H  0.91824728  0.57564908  0.05910449     0.11900
H2722       H  0.84022145  0.58737919  0.15238150     0.08900
H2723       H  0.82700497  0.61181290  0.10790837     0.12200
H2724       H  0.89070245  0.60269923  0.04095781     0.14100
C2725       C  0.63358067  0.60055588  0.80257137    -0.01400
C2726       C  0.64932591  0.63088641  0.81643767    -0.09500
C2727       C  0.67190460  0.63857345  0.84131394    -0.18300
C2728       C  0.67953969  0.61597605  0.85331135     0.04100
C2729       C  0.66361794  0.58517735  0.83905056     0.18300
C2730       C  0.64063700  0.57766569  0.81413608    -0.19700
C2731       C  0.67104906  0.56226921  0.84943049    -0.21000
C2732       C  0.69435529  0.56947917  0.87339799    -0.19500
C2733       C  0.71031637  0.59955306  0.88801938     0.19700
C2734       C  0.70267712  0.62302910  0.87862916     0.01800
C2735       C  0.71840840  0.65255569  0.89513799    -0.14300
C2736       C  0.74114151  0.65872133  0.91941559    -0.12000
C2737       C  0.74922552  0.63591009  0.92798654     0.01300
C2738       C  0.73375699  0.60631564  0.91219291    -0.24100
H2739       H  0.64401895  0.64883605  0.80809411     0.09300
H2740       H  0.68316843  0.66256452  0.85024065     0.12900
H2741       H  0.62876445  0.55423290  0.80315652     0.11600
H2742       H  0.65902525  0.53875005  0.83865379     0.12800
H2743       H  0.69983936  0.55136802  0.88064781     0.11900
H2744       H  0.71351060  0.67135773  0.89025301     0.08900
H2745       H  0.75262450  0.68168505  0.93143768     0.12200
H2746       H  0.73955214  0.58834610  0.91914640     0.14100
C2747       C  0.88401626  0.74971073  0.92702477    -0.01400
C2748       C  0.86748940  0.76110361  0.90838929    -0.09500
C2749       C  0.88265166  0.78409860  0.88352802    -0.18300
C2750       C  0.91499554  0.79634415  0.87632577     0.04100
C2751       C  0.93148175  0.78441986  0.89512390     0.18300
C2752       C  0.91604879  0.76161442  0.92017702    -0.19700
C2753       C  0.96331406  0.79515238  0.88875885    -0.21000
C2754       C  0.97922213  0.81732513  0.86379212    -0.19500
C2755       C  0.96381424  0.82966048  0.84485470     0.19700
C2756       C  0.93157906  0.81972650  0.85107394     0.01800
C2757       C  0.91752361  0.83377370  0.83182644    -0.14300
C2758       C  0.93471367  0.85642598  0.80736836    -0.12000
C2759       C  0.96621334  0.86553755  0.80099620     0.01300
C2760       C  0.98060924  0.85204013  0.81977136    -0.24100
H2761       H  0.84272326  0.75231918  0.91311639     0.09300
H2762       H  0.86837061  0.79161185  0.87022433     0.12900
H2763       H  0.92911151  0.75290325  0.93424745     0.11600
H2764       H  0.97597806  0.78613189  0.90304416     0.12800
H2765       H  0.00380852  0.82495275  0.85932928     0.11900
H2766       H  0.89340541  0.82794272  0.83521474     0.08900
H2767       H  0.92322314  0.86665307  0.79302664     0.12200
H2768       H  0.00513094  0.85940001  0.81516735     0.14100
C2769       C  0.75172420  0.63873790  0.07415194    -0.01400
C2770       C  0.76138790  0.65088816  0.10646456    -0.09500
C2771       C  0.73936335  0.64323913  0.13212682    -0.18300
C2772       C  0.70673299  0.62376777  0.12589012     0.04100
C2773       C  0.69707227  0.61245700  0.09265536     0.18300
C2774       C  0.71958700  0.61923264  0.06745699    -0.19700
C2775       C  0.66501305  0.59509573  0.08460607    -0.21000
C2776       C  0.64225581  0.58906653  0.10879951    -0.19500
C2777       C  0.65096939  0.59907253  0.14196536     0.19700
C2778       C  0.68332305  0.61580864  0.15117718     0.01800
C2779       C  0.69082215  0.62352251  0.18536682    -0.14300
C2780       C  0.66725410  0.61592936  0.20913707    -0.12000
C2781       C  0.63541290  0.60086368  0.19976076     0.01300
C2782       C  0.62748072  0.59230265  0.16603633    -0.24100
H2783       H  0.78616512  0.66618205  0.11195496     0.09300
H2784       H  0.74853425  0.65366770  0.15631095     0.12900
H2785       H  0.71205544  0.61029470  0.04222132     0.11600
H2786       H  0.65749020  0.58667008  0.05924408     0.12800
H2787       H  0.61764441  0.57611436  0.10161292     0.11900
H2788       H  0.71465034  0.63479884  0.19465737     0.08900
H2789       H  0.67408815  0.62170021  0.23517350     0.12200
H2790       H  0.60300312  0.58061126  0.15834851     0.14100
C2791       C  0.88918752  0.74628573  0.07371098    -0.01400
C2792       C  0.87544564  0.76386054  0.08464614    -0.09500
C2793       C  0.89024802  0.78756736  0.10855149    -0.18300
C2794       C  0.91972547  0.79482760  0.12219619     0.04100
C2795       C  0.93324412  0.77635248  0.11171141     0.18300
C2796       C  0.91784540  0.75223176  0.08779868    -0.19700
C2797       C  0.96216417  0.78228221  0.12492629    -0.21000
C2798       C  0.97797443  0.80617620  0.14839470    -0.19500
C2799       C  0.96531390  0.82481310  0.15910454     0.19700
C2800       C  0.93614820  0.81962175  0.14594994     0.01800
C2801       C  0.92470125  0.83949939  0.15716954    -0.14300
C2802       C  0.94079738  0.86255205  0.18148181    -0.12000
C2803       C  0.96906465  0.86700106  0.19513278     0.01300
C2804       C  0.98151886  0.84845089  0.18320295    -0.24100
H2805       H  0.85303892  0.75933730  0.07453463     0.09300
H2806       H  0.87797067  0.79980136  0.11566555     0.12900
H2807       H  0.92858319  0.73864242  0.07951966     0.11600
H2808       H  0.97261307  0.76831443  0.11708918     0.12800
H2809       H  0.00024860  0.81007366  0.15829051     0.11900
H2810       H  0.90316847  0.83766171  0.14801330     0.08900
H2811       H  0.93048947  0.87634604  0.19029903     0.12200
H2812       H  0.00384504  0.85226351  0.19286149     0.14100
C2813       C  0.53296927  0.63519016  0.80218771    -0.01400
C2814       C  0.53021639  0.62596526  0.83590667    -0.09500
C2815       C  0.54447822  0.64838892  0.86140332    -0.18300
C2816       C  0.56197166  0.68109083  0.85404343     0.04100
C2817       C  0.56415477  0.69041134  0.81990750     0.18300
C2818       C  0.55018963  0.66758378  0.79449612    -0.19700
C2819       C  0.58021104  0.72249303  0.81126984    -0.21000
C2820       C  0.59424492  0.74564290  0.83583183    -0.19500
C2821       C  0.59325299  0.73729744  0.86958647     0.19700
C2822       C  0.57739419  0.70487218  0.87919903     0.01800
C2823       C  0.57830860  0.69771550  0.91345457    -0.14300
C2824       C  0.59459337  0.72168196  0.93692655    -0.12000
C2825       C  0.60969639  0.75345704  0.92731406     0.01300
C2826       C  0.60858251  0.76121008  0.89374691    -0.24100
H2827       H  0.51644725  0.60125905  0.84275624     0.09300
H2828       H  0.54094383  0.63937825  0.88667026     0.12900
H2829       H  0.55291813  0.67516547  0.76853626     0.11600
H2830       H  0.58179809  0.72975860  0.78529700     0.12800
H2831       H  0.60639668  0.77025904  0.82829806     0.11900
H2832       H  0.56729160  0.67384211  0.92279286     0.08900
H2833       H  0.59516505  0.71536421  0.96289719     0.12200
H2834       H  0.62056146  0.78586615  0.88629025     0.14100
C2835       C  0.61415797  0.75094818  0.07126662    -0.01400
C2836       C  0.63099290  0.74041489  0.09066057    -0.09500
C2837       C  0.61581912  0.71691819  0.11489585    -0.18300
C2838       C  0.58312876  0.70328967  0.12076615     0.04100
C2839       C  0.56635453  0.71474871  0.10172210     0.18300
C2840       C  0.58181436  0.73799940  0.07704349    -0.19700
C2841       C  0.53429296  0.70318136  0.10763448    -0.21000
C2842       C  0.51856657  0.68082849  0.13254571    -0.19500
C2843       C  0.53430065  0.66882777  0.15149745     0.19700
C2844       C  0.56659861  0.67920466  0.14527704     0.01800
C2845       C  0.58082517  0.66486861  0.16374569    -0.14300
C2846       C  0.56400959  0.64220027  0.18827855    -0.12000
C2847       C  0.53269815  0.63330926  0.19539496     0.01300
C2848       C  0.51787610  0.64645751  0.17669276    -0.24100
H2849       H  0.65606473  0.75022699  0.08697701     0.09300
H2850       H  0.63041516  0.71029721  0.12897541     0.12900
H2851       H  0.56860761  0.74625546  0.06251461     0.11600
H2852       H  0.52138933  0.71186643  0.09324753     0.12800
H2853       H  0.99386824  0.67274777  0.13691565     0.11900
H2854       H  0.60479180  0.67046783  0.15964758     0.08900
H2855       H  0.57573853  0.63198691  0.20225516     0.12200
H2856       H  0.99337002  0.63897887  0.18159984     0.14100
C2857       C  0.64487046  0.89552064  0.92933782    -0.01400
C2858       C  0.62410208  0.90635899  0.93716303    -0.09500
C2859       C  0.61629274  0.92219105  0.91332804    -0.18300
C2860       C  0.62854682  0.92704909  0.88040379     0.04100
C2861       C  0.64893818  0.91511600  0.87228358     0.18300
C2862       C  0.65753678  0.90021298  0.89697556    -0.19700
C2863       C  0.66004492  0.91755633  0.83944333    -0.21000
C2864       C  0.65099211  0.93124781  0.81437737    -0.19500
C2865       C  0.63150939  0.94380456  0.82180222     0.19700
C2866       C  0.62064310  0.94260235  0.85508534     0.01800
C2867       C  0.60250463  0.95720649  0.86162261    -0.14300
C2868       C  0.59473279  0.97157272  0.83600048    -0.12000
C2869       C  0.60448715  0.97170415  0.80297717     0.01300
C2870       C  0.62290313  0.95769672  0.79612242    -0.24100
H2871       H  0.61398251  0.90274372  0.96205546     0.09300
H2872       H  0.59995473  0.92957374  0.92124172     0.12900
H2873       H  0.67319493  0.89127668  0.89074528     0.11600
H2874       H  0.67537566  0.90831132  0.83297414     0.12800
H2875       H  0.65954807  0.93230375  0.78906473     0.11900
H2876       H  0.59450939  0.95854356  0.88641195     0.08900
H2877       H  0.58143516  0.98311000  0.84226787     0.12200
H2878       H  0.63047763  0.95741353  0.77063558     0.14100
C2879       C  0.75061528  0.86377524  0.92973650    -0.01400
C2880       C  0.78210019  0.88506709  0.93757245    -0.09500
C2881       C  0.80563843  0.89339146  0.91358464    -0.18300
C2882       C  0.79816494  0.88102264  0.88066888     0.04100
C2883       C  0.76586889  0.86087178  0.87243906     0.18300
C2884       C  0.74255896  0.85189009  0.89713242    -0.19700
C2885       C  0.75702700  0.84989484  0.83960313    -0.21000
C2886       C  0.77964970  0.85827772  0.81472111    -0.19500
C2887       C  0.81169539  0.87680002  0.82239573     0.19700
C2888       C  0.82149258  0.88804561  0.85557929     0.01800
C2889       C  0.85418454  0.90507870  0.86235755    -0.14300
C2890       C  0.87616096  0.91073748  0.83717133    -0.12000
C2891       C  0.86640967  0.90016416  0.80428943     0.01300
C2892       C  0.83403410  0.88362715  0.79710499    -0.24100
H2893       H  0.78862660  0.89485645  0.96261996     0.09300
H2894       H  0.82935050  0.90987786  0.92140868     0.12900
H2895       H  0.71802675  0.83606379  0.89086763     0.11600
H2896       H  0.73243601  0.83488880  0.83307376     0.12800
H2897       H  0.77206058  0.84956414  0.78945248     0.11900
H2898       H  0.86350219  0.91345461  0.88710396     0.08900
H2899       H  0.90089909  0.92291530  0.84374451     0.12200
H2900       H  0.82604959  0.87580156  0.77168740     0.14100
C2901       C  0.63478803  0.88539603  0.07402169    -0.01400
C2902       C  0.60444049  0.87005421  0.08768982    -0.09500
C2903       C  0.59603077  0.88468821  0.11237674    -0.18300
C2904       C  0.61801751  0.91515222  0.12436532     0.04100
C2905       C  0.64892325  0.93027604  0.11063244     0.18300
C2906       C  0.65688394  0.91543340  0.08565595    -0.19700
C2907       C  0.67179756  0.96017665  0.12181957    -0.21000
C2908       C  0.66467672  0.97562369  0.14643014    -0.19500
C2909       C  0.63449867  0.96154283  0.16031269     0.19700
C2910       C  0.61061168  0.93115114  0.14949564     0.01800
C2911       C  0.58044528  0.91823527  0.16431815    -0.14300
C2912       C  0.57451459  0.93475208  0.18903920    -0.12000
C2913       C  0.59832847  0.96449550  0.19967525     0.01300
C2914       C  0.62814878  0.97780912  0.18507632    -0.24100
H2915       H  0.58696255  0.84680908  0.07891856     0.09300
H2916       H  0.57221142  0.87151781  0.12153852     0.12900
H2917       H  0.68052516  0.92728662  0.07535614     0.11600
H2918       H  0.69539401  0.97170417  0.11146548     0.12800
H2919       H  0.68238458  0.49953867  0.15291339     0.11900
H2920       H  0.56098395  0.89547774  0.15747575     0.08900
H2921       H  0.55131574  0.92403879  0.20023161     0.12200
H2922       H  0.64616394  0.50181943  0.19156991     0.14100
C2923       C  0.74795201  0.86252369  0.07610107    -0.01400
C2924       C  0.75806204  0.84079524  0.08247939    -0.09500
C2925       C  0.78044925  0.84657846  0.10716622    -0.18300
C2926       C  0.79386192  0.87466618  0.12633598     0.04100
C2927       C  0.78304807  0.89639227  0.12038569     0.18300
C2928       C  0.76026201  0.89014276  0.09549651    -0.19700
C2929       C  0.79521207  0.92430596  0.13914154    -0.21000
C2930       C  0.81809629  0.93126312  0.16354652    -0.19500
C2931       C  0.82956267  0.91059414  0.16961665     0.19700
C2932       C  0.81762876  0.88197149  0.15108880     0.01800
C2933       C  0.83022977  0.86203813  0.15795814    -0.14300
C2934       C  0.85323156  0.86993779  0.18250220    -0.12000
C2935       C  0.86467121  0.89797571  0.20070560     0.01300
C2936       C  0.85297772  0.91836598  0.19408764    -0.24100
H2937       H  0.74862564  0.81905978  0.06822526     0.09300
H2938       H  0.78675260  0.82855628  0.11048905     0.12900
H2939       H  0.75251173  0.90707584  0.09085736     0.11600
H2940       H  0.78702141  0.94092837  0.13484371     0.12800
H2941       H  0.82706313  0.95308303  0.17761295     0.11900
H2942       H  0.82294064  0.84021063  0.14480887     0.08900
H2943       H  0.86234836  0.85412753  0.18718818     0.12200
H2944       H  0.86184561  0.94006492  0.20836609     0.14100
loop_ 
_geom_bond_atom_site_label_1 
_geom_bond_atom_site_label_2 
_geom_bond_distance 
_geom_bond_site_symmetry_2 
_ccdc_geom_bond_type 
O1          Cr19   2.000   1_556  S
O1            C9   1.263       .  A
O2          Cr19   1.983   1_556  S
O2            C3   1.260       .  A
C3            O4   1.266       .  A
C3          C649   1.471       .  S
O4          Cr20   2.005       .  S
O5          Cr20   1.982       .  S
O5            C6   1.259       .  A
C6            O7   1.264       .  A
C6          C617   1.471       .  S
O7          Cr21   2.009       .  S
O8          Cr21   1.980       .  S
O8            C9   1.261       .  A
C9          C671   1.467       .  S
O10         Cr19   1.980       .  S
O10          C18   1.261       .  A
O11         Cr19   1.999       .  S
O11          C12   1.265       .  A
C12          O13   1.258       .  A
C12         C693   1.470       .  S
O13         Cr20   1.968   1_554  S
O14         Cr20   2.012   1_554  S
O14          C15   1.269       .  A
C15          O16   1.261       .  A
C15         C627   1.480       .  S
O16         Cr21   1.971   1_554  S
O17         Cr21   2.007   1_554  S
O17          C18   1.267       .  A
C18         C715   1.480       .  S
Cr19         O22   1.768       .  S
Cr20         O22   1.766   1_556  S
Cr21         O22   1.763   1_556  S
O23         Cr41   1.971   1_554  S
O23          C31   1.259       .  A
O24         Cr41   2.007   1_554  S
O24          C25   1.263       .  A
C25          O26   1.259       .  A
C25         C561   1.471       .  S
O26         Cr42   1.980       .  S
O27         Cr42   1.997       .  S
O27          C28   1.265       .  A
C28          O29   1.261       .  A
C28         C583   1.477       .  S
O29         Cr43   1.981   1_554  S
O30         Cr43   2.009   1_554  S
O30          C31   1.266       .  A
C31         C507   1.467       .  S
O32         Cr41   2.007       .  S
O32          C40   1.266       .  A
O33         Cr41   1.971       .  S
O33          C34   1.260       .  A
C34          O35   1.268       .  A
C34         C529   1.472       .  S
O35         Cr42   2.003   1_556  S
O36         Cr42   1.982   1_556  S
O36          C37   1.262       .  A
C37          O38   1.267       .  A
C37         C539   1.485       .  S
O38         Cr43   2.006       .  S
O39         Cr43   1.973       .  S
O39          C40   1.260       .  A
C40         C485   1.478       .  S
Cr41         O44   1.771       .  S
Cr42         O44   1.763   1_554  S
Cr43         O44   1.769       .  S
C45         C789   1.490       .  S
C45          C46   1.419       .  A
C45        C2258   1.419       .  A
C46          C91   1.490       .  S
C46        C1519   1.416       .  A
C47         C100   1.494       .  S
C47          C48   1.416   1_655  A
C47        C1518   1.416       .  A
C48         C798   1.484       .  S
C48         C785   1.414       .  A
C49          C71   1.490       .  S
C49          C50   1.416   1_455  A
C49         C784   1.414   1_545  A
C50          C80   1.492   1_655  S
C50        C2253   1.418       .  A
C51         C495   1.484       .  S
C51          C52   1.402       .  A
C51          C56   1.402   1_545  A
C52          C53   1.403       .  A
C52          H57   1.082       .  S
C53         C781   1.491       .  S
C53         C790   1.405   1_545  A
C54          C55   1.403       .  A
C54         C789   1.404       .  A
C54          H58   1.083       .  S
C55         C451   1.484       .  S
C55         C792   1.401       .  A
C56         C791   1.401       .  A
C56          H59   1.082       .  S
C60         C441   1.472       .  S
C60          C61   1.399       .  A
C60          C65   1.399   1_545  A
C61          C62   1.402   1_545  A
C61          H66   1.084       .  S
C62         C784   1.484       .  S
C62         C799   1.399       .  A
C63          C64   1.397       .  A
C63         C798   1.399       .  A
C63          H67   1.084       .  S
C64         C705   1.471       .  S
C64         C801   1.402       .  A
C65         C800   1.402       .  A
C65          H68   1.084       .  S
C69         C573   1.487       .  S
C69          C70   1.406       .  A
C69          C74   1.404       .  A
C70          C71   1.406       .  A
C70          H75   1.083       .  S
C71          C72   1.400       .  A
C72          C73   1.399       .  A
C72          H76   1.084       .  S
C73         C419   1.479       .  S
C73          C74   1.402       .  A
C74          H77   1.083       .  S
C78         C639   1.479       .  S
C78          C79   1.402       .  A
C78          C83   1.404   1_455  A
C79          C80   1.403       .  A
C79          H84   1.084       .  S
C80        C1553   1.403   1_455  A
C81          C82   1.400       .  A
C81        C1552   1.403       .  A
C81          H85   1.084       .  S
C82         C397   1.475       .  S
C82        C1555   1.402       .  A
C83        C1554   1.402       .  A
C83          H86   1.084       .  S
C87         C727   1.472       .  S
C87          C88   1.400       .  A
C87          C92   1.401       .  A
C88          C89   1.400       .  A
C88          H93   1.084       .  S
C89         C363   1.474       .  S
C89          C90   1.401       .  A
C90          C91   1.403       .  A
C90          H94   1.084       .  S
C91          C92   1.405       .  A
C92          H95   1.084       .  S
C96         C595   1.486       .  S
C96         C101   1.405       .  A
C96        C1569   1.404       .  A
C97          C98   1.405   1_655  A
C97        C1568   1.404       .  A
C97         H102   1.082       .  S
C98         C353   1.492       .  S
C98          C99   1.406       .  A
C99         C100   1.403   1_455  A
C99         H103   1.082       .  S
C100       C1573   1.403       .  A
C101       C1572   1.403       .  A
C101        H104   1.083       .  S
O105       Cr123   2.003       .  S
O105        C113   1.262       .  A
O106       Cr123   1.977       .  S
O106        C107   1.262       .  A
C107        O108   1.265       .  A
C107        C297   1.474       .  S
O108       Cr124   1.996       .  S
O109       Cr124   1.969       .  S
O109        C110   1.259       .  A
C110        O111   1.268       .  A
C110        C319   1.483       .  S
O111       Cr125   2.015       .  S
O112       Cr125   1.978       .  S
O112        C113   1.259       .  A
C113        C275   1.469       .  S
O114       Cr123   1.976       .  S
O114        C122   1.262       .  A
O115       Cr123   1.999       .  S
O115        C116   1.265       .  A
C116        O117   1.259       .  A
C116        C429   1.476       .  S
O117       Cr124   1.976       .  S
O118       Cr124   1.993       .  S
O118        C119   1.264       .  A
C119        O120   1.260       .  A
C119        C375   1.475       .  S
O120       Cr125   1.976       .  S
O121       Cr125   2.014       .  S
O121        C122   1.270       .  A
C122        C385   1.483       .  S
Cr123       O126   1.769       .  S
Cr124       O126   1.769       .  S
Cr125       O126   1.765       .  S
O127       Cr145   1.981       .  S
O127        C135   1.259       .  A
O128       Cr145   1.996       .  S
O128        C129   1.263       .  A
C129        O130   1.260       .  A
C129        C407   1.475       .  S
O130       Cr146   1.977       .  S
O131       Cr146   2.001       .  S
O131        C132   1.266       .  A
C132        O133   1.261       .  A
C132        C463   1.477       .  S
O133       Cr147   1.978       .  S
O134       Cr147   2.003       .  S
O134        C135   1.264       .  A
C135        C341   1.470       .  S
O136       Cr145   1.999       .  S
O136        C144   1.266       .  A
O137       Cr145   1.975       .  S
O137        C138   1.261       .  A
C138        O139   1.265       .  A
C138        C209   1.478       .  S
O139       Cr146   2.001       .  S
O140       Cr146   1.981       .  S
O140        C141   1.261       .  A
C141        O142   1.266       .  A
C141        C265   1.485       .  S
O142       Cr147   2.009       .  S
O143       Cr147   1.981       .  S
O143        C144   1.262       .  A
C144        C243   1.475       .  S
Cr145       O148   1.769       .  S
Cr146       O148   1.771       .  S
Cr147       O148   1.774       .  S
C149        C159   1.492       .  S
C149       C1622   1.417   1_455  A
C149        C890   1.416       .  A
C150        C193   1.486       .  S
C150        C151   1.417       .  A
C150       C1621   1.417       .  A
C151        C202   1.496       .  S
C151        C152   1.417       .  A
C152        C168   1.485       .  S
C152        C889   1.419       .  A
C153        C177   1.496       .  S
C153        C888   1.419   1_545  A
C153       C1626   1.415       .  A
C154        C184   1.486       .  S
C154        C885   1.416   1_545  A
C154       C1625   1.415       .  A
C155        C309   1.482       .  S
C155        C160   1.402       .  A
C155        C892   1.402       .  A
C156        C157   1.401       .  A
C156        C891   1.402       .  A
C156        H161   1.083       .  S
C157        C661   1.486       .  S
C157        C158   1.405       .  A
C158        C159   1.404       .  A
C158        H162   1.083       .  S
C159        C896   1.405       .  A
C160        C895   1.405   1_545  A
C160        H163   1.083       .  S
C164        C253   1.472       .  S
C164        C165   1.402       .  A
C164        C169   1.401       .  A
C165        C902   1.402       .  A
C165        H170   1.084       .  S
C166        C473   1.467       .  S
C166        C167   1.395       .  A
C166        C901   1.403       .  A
C167        C904   1.399       .  A
C167        H171   1.084       .  S
C168        C169   1.405       .  A
C168        C903   1.399       .  A
C169        H172   1.084       .  S
C173        C605   1.492       .  S
C173        C178   1.408       .  A
C173       C1646   1.405       .  A
C174        C175   1.406       .  A
C174       C1645   1.405       .  A
C174        H179   1.082       .  S
C175        C287   1.489       .  S
C175        C176   1.402       .  A
C176        C177   1.401       .  A
C176        H180   1.082       .  S
C177       C1650   1.408       .  A
C178       C1649   1.408       .  A
C178        H181   1.083       .  S
C182        C517   1.479       .  S
C182        C183   1.402       .  A
C182        C187   1.404       .  A
C183        C184   1.403       .  A
C183        H188   1.084       .  S
C184        C185   1.401       .  A
C185        C186   1.399       .  A
C185        H189   1.084       .  S
C186        C221   1.475       .  S
C186        C187   1.400       .  A
C187        H190   1.083       .  S
C191        C231   1.485       .  S
C191        C192   1.402       .  A
C191        C196   1.410       .  A
C192       C1665   1.401   1_455  A
C192        H197   1.083       .  S
C193        C194   1.402       .  A
C193       C1664   1.401       .  A
C194        C195   1.399       .  A
C194        H198   1.084       .  S
C195        C551   1.479       .  S
C195       C1668   1.404       .  A
C196       C1667   1.404   1_455  A
C196        H199   1.083       .  S
C200        C331   1.492       .  S
C200        C201   1.408       .  A
C200        C205   1.405       .  A
C201        C202   1.405       .  A
C201        H206   1.082       .  S
C202        C203   1.404       .  A
C203        C204   1.403       .  A
C203        H207   1.082       .  S
C204        C683   1.488       .  S
C204        C205   1.404       .  A
C205        H208   1.082       .  S
C209        C210   1.400       .  A
C209        C214   1.402       .  A
C210        C211   1.395       .  A
C210        H223   1.083       .  S
C211        C212   1.415       .  A
C211        H224   1.077       .  S
C212        C218   1.428       .  A
C212        C213   1.422       .  A
C213        C215   1.400       .  A
C213        C214   1.403       .  A
C214        H225   1.084       .  S
C215        C216   1.389       .  A
C215        H226   1.084       .  S
C216        C217   1.398       .  A
C216        H227   1.084       .  S
C217        C218   1.423       .  A
C217        C222   1.402       .  A
C218        C219   1.415       .  A
C219        C220   1.394       .  A
C219        H228   1.077       .  S
C220        C221   1.399       .  A
C220        H229   1.083       .  S
C221        C222   1.399       .  A
C222        H230   1.085       .  S
C231        C232   1.398       .  A
C231        C236   1.407       .  A
C232        C233   1.391       .  A
C232        H245   1.083   1_455  S
C233        C234   1.414       .  A
C233        H246   1.076       .  S
C234        C240   1.427       .  A
C234        C235   1.421       .  A
C235        C237   1.402       .  A
C235        C236   1.407       .  A
C236        H247   1.085       .  S
C237        C238   1.393       .  A
C237        H248   1.083       .  S
C238        C239   1.401       .  A
C238        H249   1.084       .  S
C239        C240   1.423       .  A
C239        C244   1.410       .  A
C240        C241   1.412       .  A
C241        C242   1.389       .  A
C241        H250   1.076       .  S
C242        C243   1.398       .  A
C242        H251   1.084       .  S
C243        C244   1.403       .  A
C244        H252   1.084       .  S
C253        C254   1.396       .  A
C253        C258   1.398       .  A
C254        C255   1.397       .  A
C254        H267   1.084       .  S
C255        C256   1.417       .  A
C255        H268   1.077       .  S
C256        C262   1.431       .  A
C256        C257   1.424       .  A
C257        C259   1.399       .  A
C257        C258   1.406       .  A
C258        H269   1.085       .  S
C259        C260   1.390       .  A
C259        H270   1.083       .  S
C260        C261   1.400       .  A
C260        H271   1.084       .  S
C261        C262   1.423       .  A
C261        C266   1.407       .  A
C262        C263   1.414       .  A
C263        C264   1.396       .  A
C263        H272   1.077       .  S
C264        C265   1.402       .  A
C264        H273   1.083       .  S
C265        C266   1.403       .  A
C266        H274   1.084       .  S
C275        C276   1.400       .  A
C275        C280   1.397       .  A
C276        C277   1.396       .  A
C276        H289   1.084       .  S
C277        C278   1.414       .  A
C277        H290   1.078       .  S
C278        C284   1.427       .  A
C278        C279   1.423       .  A
C279        C281   1.398       .  A
C279        C280   1.402       .  A
C280        H291   1.085       .  S
C281        C282   1.388       .  A
C281        H292   1.084       .  S
C282        C283   1.399       .  A
C282        H293   1.084       .  S
C283        C284   1.420       .  A
C283        C288   1.400       .  A
C284        C285   1.414       .  A
C285        C286   1.396       .  A
C285        H294   1.078       .  S
C286        C287   1.404       .  A
C286        H295   1.082       .  S
C287        C288   1.403       .  A
C288        H296   1.083       .  S
C297        C298   1.402       .  A
C297        C302   1.397       .  A
C298        C299   1.396       .  A
C298        H311   1.084       .  S
C299        C300   1.414       .  A
C299        H312   1.078       .  S
C300        C306   1.428       .  A
C300        C301   1.424       .  A
C301        C303   1.397       .  A
C301        C302   1.400       .  A
C302        H313   1.085       .  S
C303        C304   1.385       .  A
C303        H314   1.084       .  S
C304        C305   1.398       .  A
C304        H315   1.084       .  S
C305        C306   1.421       .  A
C305        C310   1.397       .  A
C306        C307   1.417       .  A
C307        C308   1.398       .  A
C307        H316   1.078       .  S
C308        C309   1.401       .  A
C308        H317   1.083       .  S
C309        C310   1.400       .  A
C310        H318   1.084       .  S
C319        C320   1.402       .  A
C319        C324   1.402       .  A
C320        C321   1.396       .  A
C320        H333   1.083       .  S
C321        C322   1.414       .  A
C321        H334   1.077       .  S
C322        C328   1.430       .  A
C322        C323   1.422       .  A
C323        C325   1.400       .  A
C323        C324   1.406       .  A
C324        H335   1.084       .  S
C325        C326   1.390       .  A
C325        H336   1.084       .  S
C326        C327   1.399       .  A
C326        H337   1.083       .  S
C327        C328   1.422       .  A
C327        C332   1.406       .  A
C328        C329   1.413       .  A
C329        C330   1.395       .  A
C329        H338   1.077       .  S
C330        C331   1.404       .  A
C330        H339   1.082       .  S
C331        C332   1.404       .  A
C332        H340   1.084       .  S
C341        C342   1.398       .  A
C341        C346   1.399       .  A
C342        C343   1.393       .  A
C342        H355   1.084       .  S
C343        C344   1.413       .  A
C343        H356   1.077       .  S
C344        C350   1.427       .  A
C344        C345   1.423       .  A
C345        C347   1.399       .  A
C345        C346   1.406       .  A
C346        H357   1.085       .  S
C347        C348   1.391       .  A
C347        H358   1.084       .  S
C348        C349   1.401       .  A
C348        H359   1.084       .  S
C349        C350   1.420       .  A
C349        C354   1.404       .  A
C350        C351   1.413       .  A
C351        C352   1.394       .  A
C351        H360   1.077       .  S
C352        C353   1.402       .  A
C352        H361   1.082       .  S
C353        C354   1.407       .  A
C354        H362   1.083       .  S
C363        C364   1.398       .  A
C363        C368   1.399       .  A
C364        C365   1.394       .  A
C364        H377   1.083       .  S
C365        C366   1.415       .  A
C365        H378   1.077       .  S
C366        C372   1.427       .  A
C366        C367   1.424       .  A
C367        C369   1.399       .  A
C367        C368   1.402       .  A
C368        H379   1.085       .  S
C369        C370   1.388       .  A
C369        H380   1.084       .  S
C370        C371   1.399       .  A
C370        H381   1.084       .  S
C371        C372   1.421       .  A
C371        C376   1.400       .  A
C372        C373   1.416       .  A
C373        C374   1.396       .  A
C373        H382   1.077       .  S
C374        C375   1.399       .  A
C374        H383   1.083       .  S
C375        C376   1.401       .  A
C376        H384   1.085       .  S
C385        C386   1.402       .  A
C385        C390   1.402       .  A
C386        C387   1.399       .  A
C386        H399   1.083       .  S
C387        C388   1.416       .  A
C387        H400   1.078       .  S
C388        C394   1.431       .  A
C388        C389   1.422       .  A
C389        C391   1.399       .  A
C389        C390   1.403       .  A
C390        H401   1.084       .  S
C391        C392   1.388       .  A
C391        H402   1.084       .  S
C392        C393   1.398       .  A
C392        H403   1.084       .  S
C393        C394   1.424       .  A
C393        C398   1.403       .  A
C394        C395   1.416       .  A
C395        C396   1.397       .  A
C395        H404   1.078       .  S
C396        C397   1.399       .  A
C396        H405   1.083       .  S
C397        C398   1.397       .  A
C398        H406   1.085       .  S
C407        C408   1.400       .  A
C407        C412   1.400       .  A
C408        C409   1.394       .  A
C408        H421   1.083       .  S
C409        C410   1.414       .  A
C409        H422   1.077       .  S
C410        C416   1.427       .  A
C410        C411   1.423       .  A
C411        C413   1.399       .  A
C411        C412   1.403       .  A
C412        H423   1.085       .  S
C413        C414   1.388       .  A
C413        H424   1.084       .  S
C414        C415   1.399       .  A
C414        H425   1.084       .  S
C415        C416   1.422       .  A
C415        C420   1.401       .  A
C416        C417   1.415       .  A
C417        C418   1.394       .  A
C417        H426   1.077       .  S
C418        C419   1.400       .  A
C418        H427   1.084       .  S
C419        C420   1.401       .  A
C420        H428   1.085       .  S
C429        C430   1.400       .  A
C429        C434   1.400       .  A
C430        C431   1.397       .  A
C430        H443   1.083       .  S
C431        C432   1.416       .  A
C431        H444   1.077       .  S
C432        C438   1.427       .  A
C432        C433   1.422       .  A
C433        C435   1.399       .  A
C433        C434   1.399       .  A
C434        H445   1.085       .  S
C435        C436   1.387       .  A
C435        H446   1.084       .  S
C436        C437   1.398       .  A
C436        H447   1.084   1_545  S
C437        C438   1.424       .  A
C437        C442   1.400       .  A
C438        C439   1.415       .  A
C439        C440   1.394       .  A
C439        H448   1.077       .  S
C440        C441   1.398       .  A
C440        H449   1.083       .  S
C441        C442   1.397       .  A
C442       H1186   1.085   1_545  S
H450       C1178   1.085       .  S
C451        C452   1.401       .  A
C451        C456   1.403       .  A
C452        C453   1.396       .  A
C452        H465   1.083       .  S
C453        C454   1.416       .  A
C453        H466   1.077       .  S
C454        C460   1.428       .  A
C454        C455   1.421       .  A
C455        C457   1.399       .  A
C455        C456   1.400       .  A
C456        H467   1.084       .  S
C457        C458   1.388       .  A
C457        H468   1.084       .  S
C458        C459   1.398       .  A
C458        H469   1.084       .  S
C459        C460   1.424       .  A
C459        C464   1.403       .  A
C460        C461   1.414       .  A
C461        C462   1.395       .  A
C461        H470   1.077       .  S
C462        C463   1.401       .  A
C462        H471   1.083       .  S
C463        C464   1.400       .  A
C464        H472   1.085       .  S
C473        C474   1.397       .  A
C473        C478   1.396       .  A
C474        C475   1.394       .  A
C474        H487   1.084       .  S
C475        C476   1.415       .  A
C475        H488   1.077       .  S
C476        C482   1.427       .  A
C476        C477   1.424       .  A
C477        C479   1.398       .  A
C477        C478   1.402       .  A
C478       H1225   1.085   1_545  S
C479        C480   1.388       .  A
C479       H1226   1.084   1_545  S
C480        C481   1.399       .  A
C480        H491   1.084       .  S
C481        C482   1.422       .  A
C481        C486   1.402       .  A
C482        C483   1.415       .  A
C483        C484   1.395       .  A
C483        H492   1.077       .  S
C484        C485   1.401       .  A
C484        H493   1.083       .  S
C485        C486   1.402       .  A
C486        H494   1.084       .  S
H489       C1214   1.085       .  S
H490       C1215   1.084       .  S
C495        C496   1.402       .  A
C495        C500   1.402       .  A
C496        C497   1.390       .  A
C496        H509   1.083       .  S
C497        C498   1.411       .  A
C497        H510   1.078       .  S
C498        C504   1.424       .  A
C498        C499   1.421       .  A
C499        C501   1.399       .  A
C499        C500   1.403       .  A
C500        H511   1.083       .  S
C501        C502   1.390       .  A
C501        H512   1.084       .  S
C502        C503   1.400       .  A
C502        H513   1.084       .  S
C503        C504   1.421       .  A
C503        C508   1.402       .  A
C504        C505   1.415       .  A
C505        C506   1.393       .  A
C505        H514   1.078       .  S
C506        C507   1.397       .  A
C506        H515   1.084       .  S
C507        C508   1.400       .  A
C508        H516   1.085       .  S
C517        C518   1.398       .  A
C517        C522   1.403       .  A
C518        C519   1.389       .  A
C518        H531   1.083       .  S
C519        C520   1.413       .  A
C519        H532   1.076       .  S
C520        C526   1.425       .  A
C520        C521   1.422       .  A
C521        C523   1.401       .  A
C521        C522   1.405       .  A
C522        H533   1.084       .  S
C523        C524   1.392       .  A
C523        H534   1.084       .  S
C524        C525   1.401       .  A
C524        H535   1.084       .  S
C525        C526   1.422       .  A
C525        C530   1.406       .  A
C526        C527   1.413       .  A
C527        C528   1.389       .  A
C527        H536   1.076       .  S
C528        C529   1.398       .  A
C528        H537   1.084       .  S
C529        C530   1.402       .  A
C530        H538   1.084       .  S
C539        C540   1.402       .  A
C539        C544   1.402       .  A
C540        C541   1.401       .  A
C540        H553   1.083       .  S
C541        C542   1.417       .  A
C541        H554   1.077       .  S
C542        C548   1.432       .  A
C542        C543   1.422       .  A
C543        C545   1.399       .  A
C543        C544   1.403       .  A
C544        H555   1.084       .  S
C545        C546   1.388       .  A
C545        H556   1.084       .  S
C546        C547   1.398       .  A
C546        H557   1.084       .  S
C547        C548   1.424       .  A
C547        C552   1.405       .  A
C548        C549   1.415       .  A
C549        C550   1.398       .  A
C549        H558   1.078       .  S
C550        C551   1.400       .  A
C550        H559   1.083       .  S
C551        C552   1.398       .  A
C552        H560   1.085       .  S
C561        C562   1.397       .  A
C561        C566   1.400       .  A
C562        C563   1.395       .  A
C562        H575   1.084       .  S
C563        C564   1.415       .  A
C563        H576   1.078       .  S
C564        C570   1.427       .  A
C564        C565   1.422       .  A
C565        C567   1.400       .  A
C565        C566   1.404       .  A
C566        H577   1.085       .  S
C567        C568   1.391       .  A
C567        H578   1.084       .  S
C568        C569   1.400       .  A
C568        H579   1.084       .  S
C569        C570   1.422       .  A
C569        C574   1.405       .  A
C570        C571   1.412       .  A
C571        C572   1.393       .  A
C571        H580   1.078       .  S
C572        C573   1.403       .  A
C572        H581   1.083       .  S
C573        C574   1.403       .  A
C574        H582   1.084       .  S
C583        C584   1.400       .  A
C583        C588   1.402       .  A
C584        C585   1.392       .  A
C584        H597   1.084       .  S
C585        C586   1.413       .  A
C585        H598   1.077       .  S
C586        C592   1.428       .  A
C586        C587   1.424       .  A
C587        C589   1.400       .  A
C587        C588   1.407       .  A
C588        H599   1.085       .  S
C589        C590   1.391       .  A
C589        H600   1.084       .  S
C590        C591   1.401       .  A
C590        H601   1.084       .  S
C591        C592   1.421       .  A
C591        C596   1.404       .  A
C592        C593   1.415       .  A
C593        C594   1.394       .  A
C593        H602   1.077       .  S
C594        C595   1.400       .  A
C594        H603   1.083       .  S
C595        C596   1.405       .  A
C596        H604   1.084       .  S
C605        C606   1.402       .  A
C605        C610   1.405       .  A
C606        C607   1.399       .  A
C606        H619   1.083       .  S
C607        C608   1.416       .  A
C607        H620   1.077       .  S
C608        C614   1.431       .  A
C608        C609   1.421       .  A
C609        C611   1.400       .  A
C609        C610   1.405       .  A
C610        H621   1.084       .  S
C611        C612   1.390       .  A
C611        H622   1.084       .  S
C612        C613   1.399       .  A
C612        H623   1.084       .  S
C613        C614   1.424       .  A
C613        C618   1.407       .  A
C614        C615   1.415       .  A
C615        C616   1.396       .  A
C615        H624   1.077       .  S
C616        C617   1.398       .  A
C616        H625   1.084       .  S
C617        C618   1.398       .  A
C618        H626   1.085       .  S
C627        C628   1.401       .  A
C627        C632   1.402       .  A
C628        C629   1.396       .  A
C628        H641   1.083       .  S
C629        C630   1.414       .  A
C629        H642   1.077       .  S
C630        C636   1.428       .  A
C630        C631   1.422       .  A
C631        C633   1.399       .  A
C631        C632   1.404       .  A
C632        H643   1.084       .  S
C633        C634   1.389       .  A
C633        H644   1.084       .  S
C634        C635   1.399       .  A
C634       H2117   1.084   1_455  S
C635        C636   1.423       .  A
C635        C640   1.404       .  A
C636        C637   1.415       .  A
C637        C638   1.396       .  A
C637        H646   1.077       .  S
C638        C639   1.400       .  A
C638        H647   1.084       .  S
C639        C640   1.400       .  A
C640       H2120   1.085   1_455  S
H645       C2106   1.084       .  S
H648       C2112   1.085       .  S
C649        C650   1.398       .  A
C649        C654   1.400       .  A
C650        C651   1.393       .  A
C650        H663   1.084       .  S
C651        C652   1.413       .  A
C651        H664   1.077       .  S
C652        C658   1.427       .  A
C652        C653   1.424       .  A
C653        C655   1.400       .  A
C653        C654   1.407       .  A
C654        H665   1.085       .  S
C655        C656   1.391       .  A
C655        H666   1.084       .  S
C656        C657   1.401       .  A
C656        H667   1.084       .  S
C657        C658   1.420       .  A
C657        C662   1.403       .  A
C658        C659   1.415       .  A
C659        C660   1.394       .  A
C659        H668   1.077       .  S
C660        C661   1.400       .  A
C660        H669   1.083       .  S
C661        C662   1.405       .  A
C662        H670   1.084       .  S
C671        C672   1.399       .  A
C671        C676   1.396       .  A
C672        C673   1.395       .  A
C672        H685   1.084       .  S
C673        C674   1.414       .  A
C673        H686   1.078       .  S
C674        C680   1.427       .  A
C674        C675   1.423       .  A
C675        C677   1.398       .  A
C675        C676   1.402       .  A
C676        H687   1.085       .  S
C677        C678   1.388       .  A
C677        H688   1.084       .  S
C678        C679   1.399       .  A
C678        H689   1.084       .  S
C679        C680   1.420       .  A
C679        C684   1.401       .  A
C680        C681   1.415       .  A
C681        C682   1.396       .  A
C681        H690   1.078       .  S
C682        C683   1.402       .  A
C682        H691   1.082       .  S
C683        C684   1.404       .  A
C684        H692   1.084       .  S
C693        C694   1.399       .  A
C693        C698   1.398       .  A
C694        C695   1.395       .  A
C694        H707   1.083       .  S
C695        C696   1.415       .  A
C695        H708   1.077       .  S
C696        C702   1.425       .  A
C696        C697   1.422       .  A
C697        C699   1.398       .  A
C697        C698   1.397       .  A
C698        H709   1.085       .  S
C699        C700   1.385       .  A
C699        H710   1.084       .  S
C700        C701   1.397       .  A
C700       H1447   1.084       .  S
C701        C702   1.423       .  A
C701        C706   1.397       .  A
C702        C703   1.415       .  A
C703        C704   1.393       .  A
C703        H712   1.077       .  S
C704        C705   1.399       .  A
C704        H713   1.083       .  S
C705        C706   1.396       .  A
C706       H1450   1.085       .  S
H711       C1436   1.084       .  S
H714       C1442   1.085   1_545  S
C715        C716   1.400       .  A
C715        C720   1.403       .  A
C716        C717   1.393       .  A
C716        H729   1.083       .  S
C717        C718   1.414       .  A
C717        H730   1.077       .  S
C718        C724   1.428       .  A
C718        C719   1.423       .  A
C719        C721   1.400       .  A
C719        C720   1.407       .  A
C720        H731   1.084       .  S
C721        C722   1.391       .  A
C721        H732   1.084       .  S
C722        C723   1.400       .  A
C722        H733   1.084       .  S
C723        C724   1.423       .  A
C723        C728   1.405       .  A
C724        C725   1.416       .  A
C725        C726   1.393       .  A
C725        H734   1.077       .  S
C726        C727   1.397       .  A
C726        H735   1.084       .  S
C727        C728   1.399       .  A
C728        H736   1.085       .  S
O737       Cr755   2.001   1_556  S
O737        C745   1.264       .  A
O738       Cr755   1.983   1_556  S
O738        C739   1.260       .  A
C739        O740   1.266       .  A
C739       C1385   1.471       .  S
O740       Cr756   2.006       .  S
O741       Cr756   1.982       .  S
O741        C742   1.259       .  A
C742        O743   1.264       .  A
C742       C1353   1.471       .  S
O743       Cr757   2.009       .  S
O744       Cr757   1.980       .  S
O744        C745   1.261       .  A
C745       C1407   1.468       .  S
O746       Cr755   1.980       .  S
O746        C754   1.261       .  A
O747       Cr755   2.000       .  S
O747        C748   1.266       .  A
C748        O749   1.258       .  A
C748       C1429   1.470       .  S
O749       Cr756   1.967   1_554  S
O750       Cr756   2.013   1_554  S
O750        C751   1.269       .  A
C751        O752   1.261       .  A
C751       C1363   1.481       .  S
O752       Cr757   1.972   1_554  S
O753       Cr757   2.007   1_554  S
O753        C754   1.267       .  A
C754       C1451   1.481       .  S
Cr755       O758   1.768       .  S
Cr756       O758   1.766   1_556  S
Cr757       O758   1.763   1_556  S
O759       Cr777   1.971   1_554  S
O759        C767   1.259       .  A
O760       Cr777   2.009   1_554  S
O760        C761   1.264       .  A
C761        O762   1.259       .  A
C761       C1297   1.472       .  S
O762       Cr778   1.981       .  S
O763       Cr778   1.995       .  S
O763        C764   1.264       .  A
C764        O765   1.261       .  A
C764       C1319   1.476       .  S
O765       Cr779   1.980   1_554  S
O766       Cr779   2.009   1_554  S
O766        C767   1.266       .  A
C767       C1243   1.467       .  S
O768       Cr777   2.007       .  S
O768        C776   1.266       .  A
O769       Cr777   1.971       .  S
O769        C770   1.260       .  A
C770        O771   1.267       .  A
C770       C1265   1.473       .  S
O771       Cr778   2.002   1_556  S
O772       Cr778   1.982   1_556  S
O772        C773   1.262       .  A
C773        O774   1.267       .  A
C773       C1275   1.484       .  S
O774       Cr779   2.005       .  S
O775       Cr779   1.973       .  S
O775        C776   1.260       .  A
C776       C1221   1.478       .  S
Cr777       O780   1.770       .  S
Cr778       O780   1.763   1_554  S
Cr779       O780   1.769       .  S
C781        C782   1.418   1_545  A
C781       C1522   1.418       .  A
C782        C827   1.490       .  S
C782       C2255   1.416       .  A
C783        C836   1.494       .  S
C783       C2254   1.416       .  A
C783        C784   1.416   1_655  A
C785        C807   1.490       .  S
C785        C786   1.417       .  A
C786        C816   1.493       .  S
C786       C1517   1.419   1_455  A
C787       C1231   1.483       .  S
C787        C788   1.401       .  A
C787        C792   1.401       .  A
C788        C789   1.403       .  A
C788        H793   1.082       .  S
C790        C791   1.403       .  A
C790        H794   1.083       .  S
C791       C1187   1.485       .  S
C792        H795   1.082       .  S
C796       C1177   1.472       .  S
C796        C797   1.400       .  A
C796        C801   1.400       .  A
C797        C798   1.403       .  A
C797        H802   1.084       .  S
C799        C800   1.398       .  A
C799        H803   1.084       .  S
C800       C1441   1.472       .  S
C801        H804   1.084       .  S
C805       C1309   1.488       .  S
C805        C806   1.406       .  A
C805        C810   1.405       .  A
C806        C807   1.407       .  A
C806        H811   1.083       .  S
C807        C808   1.399       .  A
C808        C809   1.399       .  A
C808        H812   1.084       .  S
C809       C1155   1.478       .  S
C809        C810   1.402       .  A
C810        H813   1.083       .  S
C814       C1375   1.479       .  S
C814        C815   1.402       .  A
C814        C819   1.405   1_455  A
C815        C816   1.403       .  A
C815        H820   1.084       .  S
C816       C2289   1.404   1_455  A
C817       C2288   1.404       .  A
C817        C818   1.401       .  A
C817        H821   1.084       .  S
C818       C1133   1.476       .  S
C818       C2291   1.403       .  A
C819       C2290   1.403       .  A
C819        H822   1.084       .  S
C823       C1463   1.472       .  S
C823        C824   1.400       .  A
C823        C828   1.401       .  A
C824        C825   1.400       .  A
C824        H829   1.084       .  S
C825       C1099   1.473       .  S
C825        C826   1.400       .  A
C826        C827   1.403       .  A
C826        H830   1.084       .  S
C827        C828   1.405       .  A
C828        H831   1.084       .  S
C832       C1331   1.485       .  S
C832       C2305   1.404       .  A
C832        C837   1.405       .  A
C833       C2304   1.404       .  A
C833        C834   1.405   1_655  A
C833        H838   1.082       .  S
C834       C1089   1.491       .  S
C834        C835   1.406       .  A
C835        C836   1.403   1_455  A
C835        H839   1.082       .  S
C836       C2309   1.402       .  A
C837       C2308   1.402       .  A
C837        H840   1.083       .  S
O841       Cr859   2.004       .  S
O841        C849   1.263       .  A
O842       Cr859   1.976       .  S
O842        C843   1.262       .  A
C843        O844   1.264       .  A
C843       C1033   1.473       .  S
O844       Cr860   1.996       .  S
O845       Cr860   1.969       .  S
O845        C846   1.259       .  A
C846        O847   1.268       .  A
C846       C1055   1.482       .  S
O847       Cr861   2.013       .  S
O848       Cr861   1.979       .  S
O848        C849   1.259       .  A
C849       C1011   1.471       .  S
O850       Cr859   1.975       .  S
O850        C858   1.262       .  A
O851       Cr859   2.001       .  S
O851        C852   1.265       .  A
C852        O853   1.259       .  A
C852       C1165   1.477       .  S
O853       Cr860   1.977       .  S
O854       Cr860   1.992       .  S
O854        C855   1.263       .  A
C855        O856   1.260       .  A
C855       C1111   1.475       .  S
O856       Cr861   1.976       .  S
O857       Cr861   2.015       .  S
O857        C858   1.270       .  A
C858       C1121   1.483       .  S
Cr859       O862   1.769       .  S
Cr860       O862   1.769       .  S
Cr861       O862   1.765       .  S
O863       Cr881   1.980       .  S
O863        C871   1.259       .  A
O864       Cr881   1.995       .  S
O864        C865   1.262       .  A
C865        O866   1.260       .  A
C865       C1143   1.474       .  S
O866       Cr882   1.976       .  S
O867       Cr882   2.001       .  S
O867        C868   1.266       .  A
C868        O869   1.261       .  A
C868       C1199   1.477       .  S
O869       Cr883   1.978       .  S
O870       Cr883   2.003       .  S
O870        C871   1.264       .  A
C871       C1077   1.469       .  S
O872       Cr881   1.998       .  S
O872        C880   1.266       .  A
O873       Cr881   1.975       .  S
O873        C874   1.261       .  A
C874        O875   1.266       .  A
C874        C945   1.478       .  S
O875       Cr882   2.002       .  S
O876       Cr882   1.981       .  S
O876        C877   1.261       .  A
C877        O878   1.266       .  A
C877       C1001   1.484       .  S
O878       Cr883   2.008       .  S
O879       Cr883   1.981       .  S
O879        C880   1.262       .  A
C880        C979   1.474       .  S
Cr881       O884   1.769       .  S
Cr882       O884   1.770       .  S
Cr883       O884   1.774       .  S
C885        C895   1.493       .  S
C885       C2358   1.417   1_455  A
C886        C929   1.485       .  S
C886       C2357   1.417       .  A
C886        C887   1.417       .  A
C887        C938   1.496       .  S
C887        C888   1.416       .  A
C888        C904   1.485   1_565  S
C889        C913   1.496       .  S
C889       C2362   1.415       .  A
C890        C920   1.487       .  S
C890       C2361   1.415       .  A
C891       C1045   1.482       .  S
C891        C896   1.402       .  A
C892        C893   1.400   1_545  A
C892        H897   1.083       .  S
C893       C1397   1.486       .  S
C893        C894   1.405       .  A
C894        C895   1.404       .  A
C894        H898   1.083       .  S
C896        H899   1.083       .  S
C900        C989   1.471       .  S
C900        C901   1.402   1_565  A
C900        C905   1.400       .  A
C901        H906   1.084       .  S
C902       C1209   1.467       .  S
C902        C903   1.395       .  A
C903        H907   1.084       .  S
C904        C905   1.405   1_545  A
C905        H908   1.084       .  S
C909       C1341   1.493       .  S
C909       C2382   1.405       .  A
C909        C914   1.408       .  A
C910       C2381   1.405       .  A
C910        C911   1.407       .  A
C910        H915   1.081       .  S
C911       C1023   1.490       .  S
C911        C912   1.402       .  A
C912        C913   1.401       .  A
C912        H916   1.082       .  S
C913       C2386   1.408       .  A
C914       C2385   1.408       .  A
C914        H917   1.083       .  S
C918       C1253   1.478       .  S
C918        C919   1.402       .  A
C918        C923   1.403       .  A
C919        C920   1.403       .  A
C919        H924   1.084       .  S
C920        C921   1.402       .  A
C921        C922   1.399       .  A
C921        H925   1.084       .  S
C922        C957   1.475       .  S
C922        C923   1.400       .  A
C923        H926   1.084       .  S
C927        C967   1.484       .  S
C927        C928   1.401       .  A
C927        C932   1.409       .  A
C928       C2401   1.401   1_455  A
C928        H933   1.083       .  S
C929       C2400   1.401       .  A
C929        C930   1.401       .  A
C930        C931   1.399       .  A
C930        H934   1.084       .  S
C931       C1287   1.479       .  S
C931       C2404   1.404       .  A
C932       C2403   1.404   1_455  A
C932        H935   1.083       .  S
C936       C1067   1.491       .  S
C936        C937   1.407       .  A
C936        C941   1.404       .  A
C937        C938   1.405       .  A
C937        H942   1.083       .  S
C938        C939   1.404       .  A
C939        C940   1.403       .  A
C939        H943   1.082       .  S
C940       C1419   1.488       .  S
C940        C941   1.404       .  A
C941        H944   1.082       .  S
C945        C946   1.400       .  A
C945        C950   1.402       .  A
C946        C947   1.396       .  A
C946        H959   1.083       .  S
C947        C948   1.415       .  A
C947        H960   1.077       .  S
C948        C954   1.428       .  A
C948        C949   1.422       .  A
C949        C951   1.399       .  A
C949        C950   1.402       .  A
C950        H961   1.084       .  S
C951        C952   1.388       .  A
C951        H962   1.084       .  S
C952        C953   1.398       .  A
C952        H963   1.084       .  S
C953        C954   1.423       .  A
C953        C958   1.402       .  A
C954        C955   1.415       .  A
C955        C956   1.394       .  A
C955        H964   1.077       .  S
C956        C957   1.399       .  A
C956        H965   1.083       .  S
C957        C958   1.398       .  A
C958        H966   1.085       .  S
C967        C968   1.398       .  A
C967        C972   1.407       .  A
C968        C969   1.391       .  A
C968        H981   1.083   1_455  S
C969        C970   1.414       .  A
C969        H982   1.076       .  S
C970        C976   1.426       .  A
C970        C971   1.421       .  A
C971        C973   1.401       .  A
C971        C972   1.407       .  A
C972        H983   1.085       .  S
C973        C974   1.393       .  A
C973        H984   1.083       .  S
C974        C975   1.401       .  A
C974        H985   1.084       .  S
C975        C976   1.423       .  A
C975        C980   1.409       .  A
C976        C977   1.412       .  A
C977        C978   1.389       .  A
C977        H986   1.076       .  S
C978        C979   1.398       .  A
C978        H987   1.084       .  S
C979        C980   1.402       .  A
C980        H988   1.084       .  S
C989        C990   1.396       .  A
C989        C994   1.398       .  A
C990        C991   1.397       .  A
C990       H1003   1.084   1_565  S
C991        C992   1.417       .  A
C991       H1004   1.077       .  S
C992        C998   1.431       .  A
C992        C993   1.424       .  A
C993        C995   1.399       .  A
C993        C994   1.405       .  A
C994       H1005   1.085       .  S
C995        C996   1.390       .  A
C995       H1006   1.084       .  S
C996        C997   1.400       .  A
C996       H1007   1.084       .  S
C997        C998   1.423       .  A
C997       C1002   1.407       .  A
C998        C999   1.414       .  A
C999       C1000   1.396       .  A
C999       H1008   1.077       .  S
C1000      C1001   1.402       .  A
C1000      H1009   1.083       .  S
C1001      C1002   1.403       .  A
C1002      H1010   1.084       .  S
C1011      C1012   1.400       .  A
C1011      C1016   1.397       .  A
C1012      C1013   1.396       .  A
C1012      H1025   1.084       .  S
C1013      C1014   1.414       .  A
C1013      H1026   1.078       .  S
C1014      C1020   1.427       .  A
C1014      C1015   1.423       .  A
C1015      C1017   1.398       .  A
C1015      C1016   1.402       .  A
C1016      H1027   1.085       .  S
C1017      C1018   1.388       .  A
C1017      H1028   1.084       .  S
C1018      C1019   1.399       .  A
C1018      H1029   1.084       .  S
C1019      C1020   1.420       .  A
C1019      C1024   1.400       .  A
C1020      C1021   1.414       .  A
C1021      C1022   1.397       .  A
C1021      H1030   1.078       .  S
C1022      C1023   1.404       .  A
C1022      H1031   1.082       .  S
C1023      C1024   1.403       .  A
C1024      H1032   1.083       .  S
C1033      C1034   1.402       .  A
C1033      C1038   1.397       .  A
C1034      C1035   1.396       .  A
C1034      H1047   1.083       .  S
C1035      C1036   1.414       .  A
C1035      H1048   1.078       .  S
C1036      C1042   1.428       .  A
C1036      C1037   1.424       .  A
C1037      C1039   1.397       .  A
C1037      C1038   1.400       .  A
C1038      H1049   1.085       .  S
C1039      C1040   1.385       .  A
C1039      H1050   1.084       .  S
C1040      C1041   1.398       .  A
C1040      H1051   1.084       .  S
C1041      C1042   1.421       .  A
C1041      C1046   1.397       .  A
C1042      C1043   1.417       .  A
C1043      C1044   1.398       .  A
C1043      H1052   1.078       .  S
C1044      C1045   1.401       .  A
C1044      H1053   1.083       .  S
C1045      C1046   1.400       .  A
C1046      H1054   1.084       .  S
C1055      C1056   1.402       .  A
C1055      C1060   1.402       .  A
C1056      C1057   1.396       .  A
C1056      H1069   1.083       .  S
C1057      C1058   1.415       .  A
C1057      H1070   1.077       .  S
C1058      C1064   1.430       .  A
C1058      C1059   1.422       .  A
C1059      C1061   1.399       .  A
C1059      C1060   1.405       .  A
C1060      H1071   1.084       .  S
C1061      C1062   1.390       .  A
C1061      H1072   1.084       .  S
C1062      C1063   1.399       .  A
C1062      H1073   1.083       .  S
C1063      C1064   1.422       .  A
C1063      C1068   1.405       .  A
C1064      C1065   1.413       .  A
C1065      C1066   1.395       .  A
C1065      H1074   1.077       .  S
C1066      C1067   1.404       .  A
C1066      H1075   1.082       .  S
C1067      C1068   1.403       .  A
C1068      H1076   1.084       .  S
C1077      C1078   1.398       .  A
C1077      C1082   1.399       .  A
C1078      C1079   1.392       .  A
C1078      H1091   1.084       .  S
C1079      C1080   1.413       .  A
C1079      H1092   1.077       .  S
C1080      C1086   1.427       .  A
C1080      C1081   1.423       .  A
C1081      C1083   1.399       .  A
C1081      C1082   1.405       .  A
C1082      H1093   1.085       .  S
C1083      C1084   1.391       .  A
C1083      H1094   1.084       .  S
C1084      C1085   1.401       .  A
C1084      H1095   1.084       .  S
C1085      C1086   1.420       .  A
C1085      C1090   1.404       .  A
C1086      C1087   1.413       .  A
C1087      C1088   1.394       .  A
C1087      H1096   1.077       .  S
C1088      C1089   1.402       .  A
C1088      H1097   1.082       .  S
C1089      C1090   1.407       .  A
C1090      H1098   1.083       .  S
C1099      C1100   1.398       .  A
C1099      C1104   1.398       .  A
C1100      C1101   1.394       .  A
C1100      H1113   1.083       .  S
C1101      C1102   1.415       .  A
C1101      H1114   1.077       .  S
C1102      C1108   1.427       .  A
C1102      C1103   1.424       .  A
C1103      C1105   1.398       .  A
C1103      C1104   1.401       .  A
C1104      H1115   1.085       .  S
C1105      C1106   1.387       .  A
C1105      H1116   1.084       .  S
C1106      C1107   1.399       .  A
C1106      H1117   1.084       .  S
C1107      C1108   1.421       .  A
C1107      C1112   1.400       .  A
C1108      C1109   1.416       .  A
C1109      C1110   1.396       .  A
C1109      H1118   1.077       .  S
C1110      C1111   1.399       .  A
C1110      H1119   1.083       .  S
C1111      C1112   1.401       .  A
C1112      H1120   1.085       .  S
C1121      C1122   1.402       .  A
C1121      C1126   1.402       .  A
C1122      C1123   1.399       .  A
C1122      H1135   1.083       .  S
C1123      C1124   1.416       .  A
C1123      H1136   1.078       .  S
C1124      C1130   1.431       .  A
C1124      C1125   1.422       .  A
C1125      C1127   1.399       .  A
C1125      C1126   1.404       .  A
C1126      H1137   1.084       .  S
C1127      C1128   1.389       .  A
C1127      H1138   1.084       .  S
C1128      C1129   1.398       .  A
C1128      H1139   1.084       .  S
C1129      C1130   1.424       .  A
C1129      C1134   1.404       .  A
C1130      C1131   1.416       .  A
C1131      C1132   1.397       .  A
C1131      H1140   1.078       .  S
C1132      C1133   1.400       .  A
C1132      H1141   1.083       .  S
C1133      C1134   1.398       .  A
C1134      H1142   1.085       .  S
C1143      C1144   1.401       .  A
C1143      C1148   1.399       .  A
C1144      C1145   1.394       .  A
C1144      H1157   1.084       .  S
C1145      C1146   1.414       .  A
C1145      H1158   1.077       .  S
C1146      C1152   1.427       .  A
C1146      C1147   1.423       .  A
C1147      C1149   1.399       .  A
C1147      C1148   1.402       .  A
C1148      H1159   1.085       .  S
C1149      C1150   1.388       .  A
C1149      H1160   1.084       .  S
C1150      C1151   1.399       .  A
C1150      H1161   1.084       .  S
C1151      C1152   1.422       .  A
C1151      C1156   1.401       .  A
C1152      C1153   1.415       .  A
C1153      C1154   1.394       .  A
C1153      H1162   1.077       .  S
C1154      C1155   1.400       .  A
C1154      H1163   1.084       .  S
C1155      C1156   1.400       .  A
C1156      H1164   1.085       .  S
C1165      C1166   1.400       .  A
C1165      C1170   1.401       .  A
C1166      C1167   1.397       .  A
C1166      H1179   1.083       .  S
C1167      C1168   1.416       .  A
C1167      H1180   1.077       .  S
C1168      C1174   1.428       .  A
C1168      C1169   1.422       .  A
C1169      C1171   1.399       .  A
C1169      C1170   1.400       .  A
C1170      H1181   1.085       .  S
C1171      C1172   1.387       .  A
C1171      H1182   1.084       .  S
C1172      C1173   1.398       .  A
C1172      H1183   1.084       .  S
C1173      C1174   1.424       .  A
C1173      C1178   1.401       .  A
C1174      C1175   1.415       .  A
C1175      C1176   1.395       .  A
C1175      H1184   1.077       .  S
C1176      C1177   1.398       .  A
C1176      H1185   1.083       .  S
C1177      C1178   1.397       .  A
C1187      C1188   1.401       .  A
C1187      C1192   1.403       .  A
C1188      C1189   1.396       .  A
C1188      H1201   1.083       .  S
C1189      C1190   1.416       .  A
C1189      H1202   1.077       .  S
C1190      C1196   1.428       .  A
C1190      C1191   1.421       .  A
C1191      C1193   1.399       .  A
C1191      C1192   1.400       .  A
C1192      H1203   1.084       .  S
C1193      C1194   1.388       .  A
C1193      H1204   1.084       .  S
C1194      C1195   1.399       .  A
C1194      H1205   1.084       .  S
C1195      C1196   1.424       .  A
C1195      C1200   1.404       .  A
C1196      C1197   1.414       .  A
C1197      C1198   1.394       .  A
C1197      H1206   1.077       .  S
C1198      C1199   1.401       .  A
C1198      H1207   1.083       .  S
C1199      C1200   1.400       .  A
C1200      H1208   1.085       .  S
C1209      C1210   1.397       .  A
C1209      C1214   1.396       .  A
C1210      C1211   1.394       .  A
C1210      H1223   1.084       .  S
C1211      C1212   1.415       .  A
C1211      H1224   1.077       .  S
C1212      C1218   1.427       .  A
C1212      C1213   1.424       .  A
C1213      C1215   1.398       .  A
C1213      C1214   1.402       .  A
C1215      C1216   1.388       .  A
C1216      C1217   1.399       .  A
C1216      H1227   1.084       .  S
C1217      C1218   1.422       .  A
C1217      C1222   1.402       .  A
C1218      C1219   1.415       .  A
C1219      C1220   1.395       .  A
C1219      H1228   1.077       .  S
C1220      C1221   1.401       .  A
C1220      H1229   1.083       .  S
C1221      C1222   1.402       .  A
C1222      H1230   1.084       .  S
C1231      C1232   1.402       .  A
C1231      C1236   1.402       .  A
C1232      C1233   1.390       .  A
C1232      H1245   1.083       .  S
C1233      C1234   1.411       .  A
C1233      H1246   1.078       .  S
C1234      C1240   1.424       .  A
C1234      C1235   1.421       .  A
C1235      C1237   1.399       .  A
C1235      C1236   1.403       .  A
C1236      H1247   1.083       .  S
C1237      C1238   1.390       .  A
C1237      H1248   1.084       .  S
C1238      C1239   1.400       .  A
C1238      H1249   1.084       .  S
C1239      C1240   1.421       .  A
C1239      C1244   1.402       .  A
C1240      C1241   1.415       .  A
C1241      C1242   1.393       .  A
C1241      H1250   1.077       .  S
C1242      C1243   1.397       .  A
C1242      H1251   1.084       .  S
C1243      C1244   1.400       .  A
C1244      H1252   1.085       .  S
C1253      C1254   1.398       .  A
C1253      C1258   1.402       .  A
C1254      C1255   1.390       .  A
C1254      H1267   1.083       .  S
C1255      C1256   1.413       .  A
C1255      H1268   1.076       .  S
C1256      C1262   1.425       .  A
C1256      C1257   1.422       .  A
C1257      C1259   1.400       .  A
C1257      C1258   1.405       .  A
C1258      H1269   1.084       .  S
C1259      C1260   1.392       .  A
C1259      H1270   1.084       .  S
C1260      C1261   1.401       .  A
C1260      H1271   1.084       .  S
C1261      C1262   1.422       .  A
C1261      C1266   1.406       .  A
C1262      C1263   1.413       .  A
C1263      C1264   1.389       .  A
C1263      H1272   1.076       .  S
C1264      C1265   1.398       .  A
C1264      H1273   1.084       .  S
C1265      C1266   1.402       .  A
C1266      H1274   1.084       .  S
C1275      C1276   1.402       .  A
C1275      C1280   1.402       .  A
C1276      C1277   1.400       .  A
C1276      H1289   1.083       .  S
C1277      C1278   1.417       .  A
C1277      H1290   1.077       .  S
C1278      C1284   1.432       .  A
C1278      C1279   1.422       .  A
C1279      C1281   1.399       .  A
C1279      C1280   1.403       .  A
C1280      H1291   1.084       .  S
C1281      C1282   1.388       .  A
C1281      H1292   1.084       .  S
C1282      C1283   1.398       .  A
C1282      H1293   1.084       .  S
C1283      C1284   1.424       .  A
C1283      C1288   1.404       .  A
C1284      C1285   1.415       .  A
C1285      C1286   1.397       .  A
C1285      H1294   1.077       .  S
C1286      C1287   1.400       .  A
C1286      H1295   1.083       .  S
C1287      C1288   1.398       .  A
C1288      H1296   1.085       .  S
C1297      C1298   1.398       .  A
C1297      C1302   1.400       .  A
C1298      C1299   1.396       .  A
C1298      H1311   1.084       .  S
C1299      C1300   1.416       .  A
C1299      H1312   1.078       .  S
C1300      C1306   1.428       .  A
C1300      C1301   1.422       .  A
C1301      C1303   1.400       .  A
C1301      C1302   1.405       .  A
C1302      H1313   1.085       .  S
C1303      C1304   1.391       .  A
C1303      H1314   1.084       .  S
C1304      C1305   1.400       .  A
C1304      H1315   1.084       .  S
C1305      C1306   1.422       .  A
C1305      C1310   1.406       .  A
C1306      C1307   1.412       .  A
C1307      C1308   1.394       .  A
C1307      H1316   1.078       .  S
C1308      C1309   1.403       .  A
C1308      H1317   1.083       .  S
C1309      C1310   1.403       .  A
C1310      H1318   1.084       .  S
C1319      C1320   1.400       .  A
C1319      C1324   1.401       .  A
C1320      C1321   1.391       .  A
C1320      H1333   1.084       .  S
C1321      C1322   1.413       .  A
C1321      H1334   1.077       .  S
C1322      C1328   1.427       .  A
C1322      C1323   1.424       .  A
C1323      C1325   1.400       .  A
C1323      C1324   1.406       .  A
C1324      H1335   1.085       .  S
C1325      C1326   1.391       .  A
C1325      H1336   1.084       .  S
C1326      C1327   1.401       .  A
C1326      H1337   1.084       .  S
C1327      C1328   1.421       .  A
C1327      C1332   1.404       .  A
C1328      C1329   1.415       .  A
C1329      C1330   1.393       .  A
C1329      H1338   1.077       .  S
C1330      C1331   1.400       .  A
C1330      H1339   1.083       .  S
C1331      C1332   1.405       .  A
C1332      H1340   1.084       .  S
C1341      C1342   1.402       .  A
C1341      C1346   1.406       .  A
C1342      C1343   1.399       .  A
C1342      H1355   1.083       .  S
C1343      C1344   1.416       .  A
C1343      H1356   1.077       .  S
C1344      C1350   1.431       .  A
C1344      C1345   1.421       .  A
C1345      C1347   1.400       .  A
C1345      C1346   1.405       .  A
C1346      H1357   1.084       .  S
C1347      C1348   1.390       .  A
C1347      H1358   1.084       .  S
C1348      C1349   1.399       .  A
C1348      H1359   1.084       .  S
C1349      C1350   1.424       .  A
C1349      C1354   1.407       .  A
C1350      C1351   1.415       .  A
C1351      C1352   1.396       .  A
C1351      H1360   1.077       .  S
C1352      C1353   1.398       .  A
C1352      H1361   1.084       .  S
C1353      C1354   1.398       .  A
C1354      H1362   1.085       .  S
C1363      C1364   1.402       .  A
C1363      C1368   1.402       .  A
C1364      C1365   1.396       .  A
C1364      H1377   1.083       .  S
C1365      C1366   1.414       .  A
C1365      H1378   1.077       .  S
C1366      C1372   1.429       .  A
C1366      C1367   1.422       .  A
C1367      C1369   1.399       .  A
C1367      C1368   1.404       .  A
C1368      H1379   1.084       .  S
C1369      C1370   1.389       .  A
C1369      H1380   1.084       .  S
C1370      C1371   1.399       .  A
C1370      H2853   1.084   1_455  S
C1371      C1372   1.423       .  A
C1371      C1376   1.404       .  A
C1372      C1373   1.415       .  A
C1373      C1374   1.396       .  A
C1373      H1382   1.077       .  S
C1374      C1375   1.400       .  A
C1374      H1383   1.084       .  S
C1375      C1376   1.400       .  A
C1376      H2856   1.085   1_455  S
H1381      C2842   1.084       .  S
H1384      C2848   1.085       .  S
C1385      C1386   1.398       .  A
C1385      C1390   1.400       .  A
C1386      C1387   1.393       .  A
C1386      H1399   1.084       .  S
C1387      C1388   1.413       .  A
C1387      H1400   1.077       .  S
C1388      C1394   1.427       .  A
C1388      C1389   1.424       .  A
C1389      C1391   1.400       .  A
C1389      C1390   1.407       .  A
C1390      H1401   1.085       .  S
C1391      C1392   1.391       .  A
C1391      H1402   1.084       .  S
C1392      C1393   1.401       .  A
C1392      H1403   1.084       .  S
C1393      C1394   1.420       .  A
C1393      C1398   1.403       .  A
C1394      C1395   1.415       .  A
C1395      C1396   1.394       .  A
C1395      H1404   1.077       .  S
C1396      C1397   1.399       .  A
C1396      H1405   1.083       .  S
C1397      C1398   1.405       .  A
C1398      H1406   1.084       .  S
C1407      C1408   1.399       .  A
C1407      C1412   1.397       .  A
C1408      C1409   1.394       .  A
C1408      H1421   1.084       .  S
C1409      C1410   1.414       .  A
C1409      H1422   1.078       .  S
C1410      C1416   1.427       .  A
C1410      C1411   1.423       .  A
C1411      C1413   1.398       .  A
C1411      C1412   1.403       .  A
C1412      H1423   1.085       .  S
C1413      C1414   1.389       .  A
C1413      H1424   1.084       .  S
C1414      C1415   1.400       .  A
C1414      H1425   1.084       .  S
C1415      C1416   1.420       .  A
C1415      C1420   1.401       .  A
C1416      C1417   1.414       .  A
C1417      C1418   1.396       .  A
C1417      H1426   1.078       .  S
C1418      C1419   1.402       .  A
C1418      H1427   1.083       .  S
C1419      C1420   1.404       .  A
C1420      H1428   1.084       .  S
C1429      C1430   1.400       .  A
C1429      C1434   1.398       .  A
C1430      C1431   1.395       .  A
C1430      H1443   1.083       .  S
C1431      C1432   1.415       .  A
C1431      H1444   1.077       .  S
C1432      C1438   1.425       .  A
C1432      C1433   1.423       .  A
C1433      C1435   1.398       .  A
C1433      C1434   1.398       .  A
C1434      H1445   1.085       .  S
C1435      C1436   1.385       .  A
C1435      H1446   1.084       .  S
C1436      C1437   1.397       .  A
C1437      C1438   1.423       .  A
C1437      C1442   1.397       .  A
C1438      C1439   1.415       .  A
C1439      C1440   1.394       .  A
C1439      H1448   1.077       .  S
C1440      C1441   1.400       .  A
C1440      H1449   1.083       .  S
C1441      C1442   1.396       .  A
C1451      C1452   1.400       .  A
C1451      C1456   1.403       .  A
C1452      C1453   1.393       .  A
C1452      H1465   1.083       .  S
C1453      C1454   1.413       .  A
C1453      H1466   1.077       .  S
C1454      C1460   1.428       .  A
C1454      C1455   1.423       .  A
C1455      C1457   1.401       .  A
C1455      C1456   1.408       .  A
C1456      H1467   1.084       .  S
C1457      C1458   1.392       .  A
C1457      H1468   1.084       .  S
C1458      C1459   1.400       .  A
C1458      H1469   1.084       .  S
C1459      C1460   1.423       .  A
C1459      C1464   1.405       .  A
C1460      C1461   1.416       .  A
C1461      C1462   1.393       .  A
C1461      H1470   1.077       .  S
C1462      C1463   1.396       .  A
C1462      H1471   1.084       .  S
C1463      C1464   1.400       .  A
C1464      H1472   1.085       .  S
O1473     Cr1491   2.000   1_556  S
O1473      C1481   1.263       .  A
O1474     Cr1491   1.983   1_556  S
O1474      C1475   1.260       .  A
C1475      O1476   1.266       .  A
C1475      C2121   1.471       .  S
O1476     Cr1492   2.005       .  S
O1477     Cr1492   1.982       .  S
O1477      C1478   1.259       .  A
C1478      O1479   1.264       .  A
C1478      C2089   1.471       .  S
O1479     Cr1493   2.009       .  S
O1480     Cr1493   1.980       .  S
O1480      C1481   1.261       .  A
C1481      C2143   1.467       .  S
O1482     Cr1491   1.980       .  S
O1482      C1490   1.261       .  A
O1483     Cr1491   1.999       .  S
O1483      C1484   1.265       .  A
C1484      O1485   1.258       .  A
C1484      C2165   1.470       .  S
O1485     Cr1492   1.968   1_554  S
O1486     Cr1492   2.012   1_554  S
O1486      C1487   1.269       .  A
C1487      O1488   1.261       .  A
C1487      C2099   1.480       .  S
O1488     Cr1493   1.971   1_554  S
O1489     Cr1493   2.007   1_554  S
O1489      C1490   1.267       .  A
C1490      C2187   1.480       .  S
Cr1491     O1494   1.768       .  S
Cr1492     O1494   1.766   1_556  S
Cr1493     O1494   1.763   1_556  S
O1495     Cr1513   1.971   1_554  S
O1495      C1503   1.259       .  A
O1496     Cr1513   2.007   1_554  S
O1496      C1497   1.263       .  A
C1497      O1498   1.259       .  A
C1497      C2033   1.471       .  S
O1498     Cr1514   1.980       .  S
O1499     Cr1514   1.997       .  S
O1499      C1500   1.265       .  A
C1500      O1501   1.261       .  A
C1500      C2055   1.477       .  S
O1501     Cr1515   1.981   1_554  S
O1502     Cr1515   2.009   1_554  S
O1502      C1503   1.266       .  A
C1503      C1979   1.467       .  S
O1504     Cr1513   2.007       .  S
O1504      C1512   1.266       .  A
O1505     Cr1513   1.971       .  S
O1505      C1506   1.260       .  A
C1506      O1507   1.268       .  A
C1506      C2001   1.472       .  S
O1507     Cr1514   2.003   1_556  S
O1508     Cr1514   1.982   1_556  S
O1508      C1509   1.262       .  A
C1509      O1510   1.267       .  A
C1509      C2011   1.485       .  S
O1510     Cr1515   2.006       .  S
O1511     Cr1515   1.973       .  S
O1511      C1512   1.260       .  A
C1512      C1957   1.478       .  S
Cr1513     O1516   1.771       .  S
Cr1514     O1516   1.763   1_554  S
Cr1515     O1516   1.769       .  S
C1517      C2261   1.490       .  S
C1517      C1518   1.419       .  A
C1518      C1563   1.490       .  S
C1519      C1572   1.494       .  S
C1519      C1520   1.416       .  A
C1520      C2270   1.484       .  S
C1520      C2257   1.414       .  A
C1521      C1543   1.490       .  S
C1521      C2256   1.414   1_545  A
C1521      C1522   1.416       .  A
C1522      C1552   1.492       .  S
C1523      C1967   1.484       .  S
C1523      C1524   1.402       .  A
C1523      C1528   1.402   1_545  A
C1524      C1525   1.403       .  A
C1524      H1529   1.082       .  S
C1525      C2253   1.491       .  S
C1525      C2262   1.405   1_545  A
C1526      C2261   1.404       .  A
C1526      C1527   1.403       .  A
C1526      H1530   1.083       .  S
C1527      C1923   1.484       .  S
C1527      C2264   1.401       .  A
C1528      C2263   1.401       .  A
C1528      H1531   1.082       .  S
C1532      C1913   1.472       .  S
C1532      C1533   1.399       .  A
C1532      C1537   1.399   1_545  A
C1533      C1534   1.402   1_545  A
C1533      H1538   1.084       .  S
C1534      C2256   1.484       .  S
C1534      C2271   1.399       .  A
C1535      C2270   1.399       .  A
C1535      C1536   1.397       .  A
C1535      H1539   1.084       .  S
C1536      C2177   1.471       .  S
C1536      C2273   1.402       .  A
C1537      C2272   1.402       .  A
C1537      H1540   1.084       .  S
C1541      C2045   1.487       .  S
C1541      C1542   1.406       .  A
C1541      C1546   1.404       .  A
C1542      C1543   1.406       .  A
C1542      H1547   1.083       .  S
C1543      C1544   1.400       .  A
C1544      C1545   1.399       .  A
C1544      H1548   1.084       .  S
C1545      C1891   1.479       .  S
C1545      C1546   1.402       .  A
C1546      H1549   1.083       .  S
C1550      C2111   1.479       .  S
C1550      C1551   1.402       .  A
C1550      C1555   1.404       .  A
C1551      C1552   1.403       .  A
C1551      H1556   1.084       .  S
C1553      C1554   1.400       .  A
C1553      H1557   1.084       .  S
C1554      C1869   1.475       .  S
C1555      H1558   1.084       .  S
C1559      C2199   1.472       .  S
C1559      C1560   1.400       .  A
C1559      C1564   1.401       .  A
C1560      C1561   1.400       .  A
C1560      H1565   1.084       .  S
C1561      C1835   1.474       .  S
C1561      C1562   1.401       .  A
C1562      C1563   1.403       .  A
C1562      H1566   1.084       .  S
C1563      C1564   1.405       .  A
C1564      H1567   1.084       .  S
C1568      C2067   1.486       .  S
C1568      C1573   1.405       .  A
C1569      C1570   1.405       .  A
C1569      H1574   1.082       .  S
C1570      C1825   1.492       .  S
C1570      C1571   1.406       .  A
C1571      C1572   1.403       .  A
C1571      H1575   1.082       .  S
C1573      H1576   1.083       .  S
O1577     Cr1595   2.003       .  S
O1577      C1585   1.262       .  A
O1578     Cr1595   1.977       .  S
O1578      C1579   1.262       .  A
C1579      O1580   1.265       .  A
C1579      C1769   1.474       .  S
O1580     Cr1596   1.996       .  S
O1581     Cr1596   1.969       .  S
O1581      C1582   1.259       .  A
C1582      O1583   1.268       .  A
C1582      C1791   1.483       .  S
O1583     Cr1597   2.015       .  S
O1584     Cr1597   1.978       .  S
O1584      C1585   1.259       .  A
C1585      C1747   1.469       .  S
O1586     Cr1595   1.976       .  S
O1586      C1594   1.262       .  A
O1587     Cr1595   1.999       .  S
O1587      C1588   1.265       .  A
C1588      O1589   1.259       .  A
C1588      C1901   1.476       .  S
O1589     Cr1596   1.976       .  S
O1590     Cr1596   1.993       .  S
O1590      C1591   1.264       .  A
C1591      O1592   1.260       .  A
C1591      C1847   1.475       .  S
O1592     Cr1597   1.976       .  S
O1593     Cr1597   2.014       .  S
O1593      C1594   1.270       .  A
C1594      C1857   1.483       .  S
Cr1595     O1598   1.769       .  S
Cr1596     O1598   1.769       .  S
Cr1597     O1598   1.765       .  S
O1599     Cr1617   1.981       .  S
O1599      C1607   1.259       .  A
O1600     Cr1617   1.996       .  S
O1600      C1601   1.263       .  A
C1601      O1602   1.260       .  A
C1601      C1879   1.475       .  S
O1602     Cr1618   1.977       .  S
O1603     Cr1618   2.001       .  S
O1603      C1604   1.266       .  A
C1604      O1605   1.261       .  A
C1604      C1935   1.477       .  S
O1605     Cr1619   1.978       .  S
O1606     Cr1619   2.003       .  S
O1606      C1607   1.264       .  A
C1607      C1813   1.470       .  S
O1608     Cr1617   1.999       .  S
O1608      C1616   1.266       .  A
O1609     Cr1617   1.975       .  S
O1609      C1610   1.261       .  A
C1610      O1611   1.265       .  A
C1610      C1681   1.478       .  S
O1611     Cr1618   2.001       .  S
O1612     Cr1618   1.981       .  S
O1612      C1613   1.261       .  A
C1613      O1614   1.266       .  A
C1613      C1737   1.485       .  S
O1614     Cr1619   2.009       .  S
O1615     Cr1619   1.981       .  S
O1615      C1616   1.262       .  A
C1616      C1715   1.475       .  S
Cr1617     O1620   1.769       .  S
Cr1618     O1620   1.771       .  S
Cr1619     O1620   1.774       .  S
C1621      C1631   1.492       .  S
C1621      C2362   1.416       .  A
C1622      C1665   1.486       .  S
C1622      C1623   1.417       .  A
C1623      C1674   1.496       .  S
C1623      C1624   1.417       .  A
C1624      C1640   1.485       .  S
C1624      C2361   1.419   1_655  A
C1625      C1649   1.496       .  S
C1625      C2360   1.419   1_445  A
C1626      C1656   1.486       .  S
C1626      C2357   1.416   1_545  A
C1627      C1781   1.482       .  S
C1627      C2364   1.402       .  A
C1627      C1632   1.402       .  A
C1628      C2363   1.402       .  A
C1628      C1629   1.400       .  A
C1628      H1633   1.083       .  S
C1629      C2133   1.486       .  S
C1629      C1630   1.405       .  A
C1630      C1631   1.404       .  A
C1630      H1634   1.083       .  S
C1631      C2368   1.405       .  A
C1632      C2367   1.405   1_545  A
C1632      H1635   1.083       .  S
C1636      C1725   1.472       .  S
C1636      C1637   1.402       .  A
C1636      C1641   1.401       .  A
C1637      C2374   1.402       .  A
C1637      H1642   1.084       .  S
C1638      C1945   1.467       .  S
C1638      C2373   1.403       .  A
C1638      C1639   1.395       .  A
C1639      C2376   1.399       .  A
C1639      H1643   1.084       .  S
C1640      C2375   1.399       .  A
C1640      C1641   1.405       .  A
C1641      H1644   1.084       .  S
C1645      C2077   1.492       .  S
C1645      C1650   1.408       .  A
C1646      C1647   1.406   1_455  A
C1646      H1651   1.082       .  S
C1647      C1759   1.489       .  S
C1647      C1648   1.402       .  A
C1648      C1649   1.401   1_655  A
C1648      H1652   1.082       .  S
C1650      H1653   1.083       .  S
C1654      C1989   1.479       .  S
C1654      C1655   1.402       .  A
C1654      C1659   1.404       .  A
C1655      C1656   1.403       .  A
C1655      H1660   1.084       .  S
C1656      C1657   1.401       .  A
C1657      C1658   1.399       .  A
C1657      H1661   1.084       .  S
C1658      C1693   1.475       .  S
C1658      C1659   1.400       .  A
C1659      H1662   1.083       .  S
C1663      C1703   1.485       .  S
C1663      C1664   1.402       .  A
C1663      C1668   1.410       .  A
C1664      H1669   1.083       .  S
C1665      C1666   1.402       .  A
C1666      C1667   1.399       .  A
C1666      H1670   1.084       .  S
C1667      C2023   1.479       .  S
C1668      H1671   1.083       .  S
C1672      C1803   1.492       .  S
C1672      C1673   1.408       .  A
C1672      C1677   1.405       .  A
C1673      C1674   1.405       .  A
C1673      H1678   1.082       .  S
C1674      C1675   1.404       .  A
C1675      C1676   1.403       .  A
C1675      H1679   1.082       .  S
C1676      C2155   1.488       .  S
C1676      C1677   1.404       .  A
C1677      H1680   1.082       .  S
C1681      C1682   1.400       .  A
C1681      C1686   1.402       .  A
C1682      C1683   1.395       .  A
C1682      H1695   1.083       .  S
C1683      C1684   1.415       .  A
C1683      H1696   1.077       .  S
C1684      C1690   1.428       .  A
C1684      C1685   1.422       .  A
C1685      C1687   1.400       .  A
C1685      C1686   1.403       .  A
C1686      H1697   1.084       .  S
C1687      C1688   1.389       .  A
C1687      H1698   1.084       .  S
C1688      C1689   1.398       .  A
C1688      H1699   1.084       .  S
C1689      C1690   1.423       .  A
C1689      C1694   1.402       .  A
C1690      C1691   1.415       .  A
C1691      C1692   1.394       .  A
C1691      H1700   1.077       .  S
C1692      C1693   1.399       .  A
C1692      H1701   1.083       .  S
C1693      C1694   1.399       .  A
C1694      H1702   1.085       .  S
C1703      C1704   1.398       .  A
C1703      C1708   1.407       .  A
C1704      C1705   1.391       .  A
C1704      H1717   1.083       .  S
C1705      C1706   1.414       .  A
C1705      H1718   1.076       .  S
C1706      C1712   1.427       .  A
C1706      C1707   1.421       .  A
C1707      C1709   1.402       .  A
C1707      C1708   1.407       .  A
C1708      H1719   1.085       .  S
C1709      C1710   1.393       .  A
C1709      H1720   1.083       .  S
C1710      C1711   1.401       .  A
C1710      H1721   1.084       .  S
C1711      C1712   1.423       .  A
C1711      C1716   1.410       .  A
C1712      C1713   1.412       .  A
C1713      C1714   1.389       .  A
C1713      H1722   1.076       .  S
C1714      C1715   1.398       .  A
C1714      H1723   1.084       .  S
C1715      C1716   1.403       .  A
C1716      H1724   1.084       .  S
C1725      C1726   1.396       .  A
C1725      C1730   1.398       .  A
C1726      C1727   1.397       .  A
C1726      H1739   1.084       .  S
C1727      C1728   1.417       .  A
C1727      H1740   1.077       .  S
C1728      C1734   1.431       .  A
C1728      C1729   1.424       .  A
C1729      C1731   1.399       .  A
C1729      C1730   1.406       .  A
C1730      H1741   1.085       .  S
C1731      C1732   1.390       .  A
C1731      H1742   1.083       .  S
C1732      C1733   1.400       .  A
C1732      H1743   1.084       .  S
C1733      C1734   1.423       .  A
C1733      C1738   1.407       .  A
C1734      C1735   1.414       .  A
C1735      C1736   1.396       .  A
C1735      H1744   1.077       .  S
C1736      C1737   1.402       .  A
C1736      H1745   1.083       .  S
C1737      C1738   1.403       .  A
C1738      H1746   1.084       .  S
C1747      C1748   1.400       .  A
C1747      C1752   1.397       .  A
C1748      C1749   1.396       .  A
C1748      H1761   1.084       .  S
C1749      C1750   1.414       .  A
C1749      H1762   1.078       .  S
C1750      C1756   1.427       .  A
C1750      C1751   1.423       .  A
C1751      C1753   1.398       .  A
C1751      C1752   1.402       .  A
C1752      H1763   1.085       .  S
C1753      C1754   1.388       .  A
C1753      H1764   1.084       .  S
C1754      C1755   1.399       .  A
C1754      H1765   1.084       .  S
C1755      C1756   1.420       .  A
C1755      C1760   1.400       .  A
C1756      C1757   1.414       .  A
C1757      C1758   1.396       .  A
C1757      H1766   1.078       .  S
C1758      C1759   1.404       .  A
C1758      H1767   1.082       .  S
C1759      C1760   1.403       .  A
C1760      H1768   1.083       .  S
C1769      C1770   1.402       .  A
C1769      C1774   1.397       .  A
C1770      C1771   1.396       .  A
C1770      H1783   1.084       .  S
C1771      C1772   1.414       .  A
C1771      H1784   1.078       .  S
C1772      C1778   1.428       .  A
C1772      C1773   1.424       .  A
C1773      C1775   1.397       .  A
C1773      C1774   1.400       .  A
C1774      H1785   1.085       .  S
C1775      C1776   1.385       .  A
C1775      H1786   1.084       .  S
C1776      C1777   1.398       .  A
C1776      H1787   1.084       .  S
C1777      C1778   1.421       .  A
C1777      C1782   1.397       .  A
C1778      C1779   1.417       .  A
C1779      C1780   1.398       .  A
C1779      H1788   1.078       .  S
C1780      C1781   1.401       .  A
C1780      H1789   1.083       .  S
C1781      C1782   1.400       .  A
C1782      H1790   1.084       .  S
C1791      C1792   1.402       .  A
C1791      C1796   1.402       .  A
C1792      C1793   1.396       .  A
C1792      H1805   1.083       .  S
C1793      C1794   1.414       .  A
C1793      H1806   1.077       .  S
C1794      C1800   1.430       .  A
C1794      C1795   1.422       .  A
C1795      C1797   1.400       .  A
C1795      C1796   1.406       .  A
C1796      H1807   1.084       .  S
C1797      C1798   1.390       .  A
C1797      H1808   1.084       .  S
C1798      C1799   1.399       .  A
C1798      H1809   1.083       .  S
C1799      C1800   1.422       .  A
C1799      C1804   1.406       .  A
C1800      C1801   1.413       .  A
C1801      C1802   1.395       .  A
C1801      H1810   1.077       .  S
C1802      C1803   1.404       .  A
C1802      H1811   1.082       .  S
C1803      C1804   1.404       .  A
C1804      H1812   1.084       .  S
C1813      C1814   1.398       .  A
C1813      C1818   1.399       .  A
C1814      C1815   1.393       .  A
C1814      H1827   1.084       .  S
C1815      C1816   1.413       .  A
C1815      H1828   1.077       .  S
C1816      C1822   1.427       .  A
C1816      C1817   1.423       .  A
C1817      C1819   1.399       .  A
C1817      C1818   1.406       .  A
C1818      H1829   1.085       .  S
C1819      C1820   1.391       .  A
C1819      H1830   1.084       .  S
C1820      C1821   1.401       .  A
C1820      H1831   1.084       .  S
C1821      C1822   1.420       .  A
C1821      C1826   1.404       .  A
C1822      C1823   1.413       .  A
C1823      C1824   1.394       .  A
C1823      H1832   1.077       .  S
C1824      C1825   1.402       .  A
C1824      H1833   1.082       .  S
C1825      C1826   1.406       .  A
C1826      H1834   1.083       .  S
C1835      C1836   1.398       .  A
C1835      C1840   1.399       .  A
C1836      C1837   1.394       .  A
C1836      H1849   1.083       .  S
C1837      C1838   1.415       .  A
C1837      H1850   1.077       .  S
C1838      C1844   1.427       .  A
C1838      C1839   1.424       .  A
C1839      C1841   1.399       .  A
C1839      C1840   1.402       .  A
C1840      H1851   1.085       .  S
C1841      C1842   1.388       .  A
C1841      H1852   1.084       .  S
C1842      C1843   1.399       .  A
C1842      H1853   1.084       .  S
C1843      C1844   1.421       .  A
C1843      C1848   1.400       .  A
C1844      C1845   1.416       .  A
C1845      C1846   1.396       .  A
C1845      H1854   1.077       .  S
C1846      C1847   1.399       .  A
C1846      H1855   1.083       .  S
C1847      C1848   1.401       .  A
C1848      H1856   1.085       .  S
C1857      C1858   1.402       .  A
C1857      C1862   1.402       .  A
C1858      C1859   1.399       .  A
C1858      H1871   1.083       .  S
C1859      C1860   1.416       .  A
C1859      H1872   1.078       .  S
C1860      C1866   1.431       .  A
C1860      C1861   1.422       .  A
C1861      C1863   1.399       .  A
C1861      C1862   1.403       .  A
C1862      H1873   1.084       .  S
C1863      C1864   1.388       .  A
C1863      H1874   1.084       .  S
C1864      C1865   1.398       .  A
C1864      H1875   1.084   1_655  S
C1865      C1866   1.424       .  A
C1865      C1870   1.403       .  A
C1866      C1867   1.416       .  A
C1867      C1868   1.397       .  A
C1867      H1876   1.078       .  S
C1868      C1869   1.399       .  A
C1868      H1877   1.083       .  S
C1869      C1870   1.397       .  A
C1870      H1878   1.085   1_655  S
C1879      C1880   1.400       .  A
C1879      C1884   1.400       .  A
C1880      C1881   1.394       .  A
C1880      H1893   1.083       .  S
C1881      C1882   1.414       .  A
C1881      H1894   1.077       .  S
C1882      C1888   1.427       .  A
C1882      C1883   1.423       .  A
C1883      C1885   1.399       .  A
C1883      C1884   1.403       .  A
C1884      H1895   1.085       .  S
C1885      C1886   1.388       .  A
C1885      H1896   1.084       .  S
C1886      C1887   1.399       .  A
C1886      H1897   1.084       .  S
C1887      C1888   1.422       .  A
C1887      C1892   1.401       .  A
C1888      C1889   1.415       .  A
C1889      C1890   1.394       .  A
C1889      H1898   1.077       .  S
C1890      C1891   1.400       .  A
C1890      H1899   1.084       .  S
C1891      C1892   1.401       .  A
C1892      H1900   1.085       .  S
C1901      C1902   1.400       .  A
C1901      C1906   1.400       .  A
C1902      C1903   1.397       .  A
C1902      H1915   1.083       .  S
C1903      C1904   1.416       .  A
C1903      H1916   1.077       .  S
C1904      C1910   1.427       .  A
C1904      C1905   1.422       .  A
C1905      C1907   1.399       .  A
C1905      C1906   1.399       .  A
C1906      H1917   1.085       .  S
C1907      C1908   1.387       .  A
C1907      H1918   1.084       .  S
C1908      C1909   1.398       .  A
C1908      H1919   1.084   1_545  S
C1909      C1910   1.424       .  A
C1909      C1914   1.401       .  A
C1910      C1911   1.415       .  A
C1911      C1912   1.394       .  A
C1911      H1920   1.077       .  S
C1912      C1913   1.398       .  A
C1912      H1921   1.083       .  S
C1913      C1914   1.397       .  A
C1914      H2658   1.085   1_545  S
H1922      C2650   1.085       .  S
C1923      C1924   1.401       .  A
C1923      C1928   1.403       .  A
C1924      C1925   1.396       .  A
C1924      H1937   1.083       .  S
C1925      C1926   1.416       .  A
C1925      H1938   1.077       .  S
C1926      C1932   1.428       .  A
C1926      C1927   1.421       .  A
C1927      C1929   1.399       .  A
C1927      C1928   1.400       .  A
C1928      H1939   1.084       .  S
C1929      C1930   1.388       .  A
C1929      H1940   1.084       .  S
C1930      C1931   1.398       .  A
C1930      H1941   1.084       .  S
C1931      C1932   1.424       .  A
C1931      C1936   1.403       .  A
C1932      C1933   1.414       .  A
C1933      C1934   1.395       .  A
C1933      H1942   1.077       .  S
C1934      C1935   1.401       .  A
C1934      H1943   1.083       .  S
C1935      C1936   1.400       .  A
C1936      H1944   1.085       .  S
C1945      C1946   1.397       .  A
C1945      C1950   1.396       .  A
C1946      C1947   1.394       .  A
C1946      H1959   1.084       .  S
C1947      C1948   1.415       .  A
C1947      H1960   1.077       .  S
C1948      C1954   1.427       .  A
C1948      C1949   1.424       .  A
C1949      C1951   1.398       .  A
C1949      C1950   1.402       .  A
C1950      H2697   1.085   1_545  S
C1951      C1952   1.388       .  A
C1951      H2698   1.084   1_545  S
C1952      C1953   1.399       .  A
C1952      H1963   1.084       .  S
C1953      C1954   1.422       .  A
C1953      C1958   1.402       .  A
C1954      C1955   1.415       .  A
C1955      C1956   1.395       .  A
C1955      H1964   1.077       .  S
C1956      C1957   1.401       .  A
C1956      H1965   1.083       .  S
C1957      C1958   1.402       .  A
C1958      H1966   1.084       .  S
H1961      C2686   1.085       .  S
H1962      C2687   1.084       .  S
C1967      C1968   1.402       .  A
C1967      C1972   1.403       .  A
C1968      C1969   1.390       .  A
C1968      H1981   1.083       .  S
C1969      C1970   1.411       .  A
C1969      H1982   1.078       .  S
C1970      C1976   1.424       .  A
C1970      C1971   1.421       .  A
C1971      C1973   1.399       .  A
C1971      C1972   1.403       .  A
C1972      H1983   1.083       .  S
C1973      C1974   1.390       .  A
C1973      H1984   1.084       .  S
C1974      C1975   1.400       .  A
C1974      H1985   1.084       .  S
C1975      C1976   1.421       .  A
C1975      C1980   1.402       .  A
C1976      C1977   1.415       .  A
C1977      C1978   1.393       .  A
C1977      H1986   1.078       .  S
C1978      C1979   1.397       .  A
C1978      H1987   1.084       .  S
C1979      C1980   1.400       .  A
C1980      H1988   1.085       .  S
C1989      C1990   1.398       .  A
C1989      C1994   1.403       .  A
C1990      C1991   1.389       .  A
C1990      H2003   1.083       .  S
C1991      C1992   1.413       .  A
C1991      H2004   1.076       .  S
C1992      C1998   1.425       .  A
C1992      C1993   1.422       .  A
C1993      C1995   1.401       .  A
C1993      C1994   1.405       .  A
C1994      H2005   1.084       .  S
C1995      C1996   1.392       .  A
C1995      H2006   1.084       .  S
C1996      C1997   1.401       .  A
C1996      H2007   1.084       .  S
C1997      C1998   1.422       .  A
C1997      C2002   1.406       .  A
C1998      C1999   1.413       .  A
C1999      C2000   1.389       .  A
C1999      H2008   1.076       .  S
C2000      C2001   1.398       .  A
C2000      H2009   1.084       .  S
C2001      C2002   1.402       .  A
C2002      H2010   1.084       .  S
C2011      C2012   1.402       .  A
C2011      C2016   1.402       .  A
C2012      C2013   1.401       .  A
C2012      H2025   1.083       .  S
C2013      C2014   1.417       .  A
C2013      H2026   1.077       .  S
C2014      C2020   1.432       .  A
C2014      C2015   1.422       .  A
C2015      C2017   1.399       .  A
C2015      C2016   1.403       .  A
C2016      H2027   1.084       .  S
C2017      C2018   1.388       .  A
C2017      H2028   1.084       .  S
C2018      C2019   1.398       .  A
C2018      H2029   1.084   1_655  S
C2019      C2020   1.424       .  A
C2019      C2024   1.405       .  A
C2020      C2021   1.415       .  A
C2021      C2022   1.398       .  A
C2021      H2030   1.078       .  S
C2022      C2023   1.400       .  A
C2022      H2031   1.083       .  S
C2023      C2024   1.398       .  A
C2024      H2032   1.085   1_655  S
C2033      C2034   1.397       .  A
C2033      C2038   1.400       .  A
C2034      C2035   1.395       .  A
C2034      H2047   1.084       .  S
C2035      C2036   1.415       .  A
C2035      H2048   1.078       .  S
C2036      C2042   1.427       .  A
C2036      C2037   1.422       .  A
C2037      C2039   1.400       .  A
C2037      C2038   1.404       .  A
C2038      H2049   1.085       .  S
C2039      C2040   1.391       .  A
C2039      H2050   1.084       .  S
C2040      C2041   1.400       .  A
C2040      H2051   1.084       .  S
C2041      C2042   1.422       .  A
C2041      C2046   1.405       .  A
C2042      C2043   1.412       .  A
C2043      C2044   1.393       .  A
C2043      H2052   1.078       .  S
C2044      C2045   1.403       .  A
C2044      H2053   1.083       .  S
C2045      C2046   1.403       .  A
C2046      H2054   1.084       .  S
C2055      C2056   1.400       .  A
C2055      C2060   1.402       .  A
C2056      C2057   1.392       .  A
C2056      H2069   1.084       .  S
C2057      C2058   1.413       .  A
C2057      H2070   1.077       .  S
C2058      C2064   1.428       .  A
C2058      C2059   1.424       .  A
C2059      C2061   1.400       .  A
C2059      C2060   1.407       .  A
C2060      H2071   1.085       .  S
C2061      C2062   1.391       .  A
C2061      H2072   1.084       .  S
C2062      C2063   1.401       .  A
C2062      H2073   1.084   1_655  S
C2063      C2064   1.421       .  A
C2063      C2068   1.404       .  A
C2064      C2065   1.415       .  A
C2065      C2066   1.394       .  A
C2065      H2074   1.077       .  S
C2066      C2067   1.400       .  A
C2066      H2075   1.083       .  S
C2067      C2068   1.405       .  A
C2068      H2076   1.084   1_655  S
C2077      C2078   1.402       .  A
C2077      C2082   1.405       .  A
C2078      C2079   1.399       .  A
C2078      H2091   1.083       .  S
C2079      C2080   1.416       .  A
C2079      H2092   1.077       .  S
C2080      C2086   1.431       .  A
C2080      C2081   1.421       .  A
C2081      C2083   1.400       .  A
C2081      C2082   1.405       .  A
C2082      H2093   1.084       .  S
C2083      C2084   1.390       .  A
C2083      H2094   1.084       .  S
C2084      C2085   1.399       .  A
C2084      H2095   1.084       .  S
C2085      C2086   1.424       .  A
C2085      C2090   1.407       .  A
C2086      C2087   1.415       .  A
C2087      C2088   1.396       .  A
C2087      H2096   1.077       .  S
C2088      C2089   1.398       .  A
C2088      H2097   1.084       .  S
C2089      C2090   1.398       .  A
C2090      H2098   1.085       .  S
C2099      C2100   1.401       .  A
C2099      C2104   1.402       .  A
C2100      C2101   1.396       .  A
C2100      H2113   1.083       .  S
C2101      C2102   1.414       .  A
C2101      H2114   1.077       .  S
C2102      C2108   1.428       .  A
C2102      C2103   1.422       .  A
C2103      C2105   1.399       .  A
C2103      C2104   1.404       .  A
C2104      H2115   1.084       .  S
C2105      C2106   1.389       .  A
C2105      H2116   1.084       .  S
C2106      C2107   1.399       .  A
C2107      C2108   1.423       .  A
C2107      C2112   1.404       .  A
C2108      C2109   1.415       .  A
C2109      C2110   1.396       .  A
C2109      H2118   1.077       .  S
C2110      C2111   1.400       .  A
C2110      H2119   1.084       .  S
C2111      C2112   1.400       .  A
C2121      C2122   1.398       .  A
C2121      C2126   1.400       .  A
C2122      C2123   1.393       .  A
C2122      H2135   1.084       .  S
C2123      C2124   1.413       .  A
C2123      H2136   1.077       .  S
C2124      C2130   1.427       .  A
C2124      C2125   1.424       .  A
C2125      C2127   1.400       .  A
C2125      C2126   1.407       .  A
C2126      H2137   1.085       .  S
C2127      C2128   1.391       .  A
C2127      H2138   1.084       .  S
C2128      C2129   1.401       .  A
C2128      H2139   1.084       .  S
C2129      C2130   1.420       .  A
C2129      C2134   1.403       .  A
C2130      C2131   1.415       .  A
C2131      C2132   1.394       .  A
C2131      H2140   1.077       .  S
C2132      C2133   1.400       .  A
C2132      H2141   1.083       .  S
C2133      C2134   1.405       .  A
C2134      H2142   1.084       .  S
C2143      C2144   1.399       .  A
C2143      C2148   1.396       .  A
C2144      C2145   1.395       .  A
C2144      H2157   1.084       .  S
C2145      C2146   1.414       .  A
C2145      H2158   1.078       .  S
C2146      C2152   1.427       .  A
C2146      C2147   1.423       .  A
C2147      C2149   1.398       .  A
C2147      C2148   1.402       .  A
C2148      H2159   1.085       .  S
C2149      C2150   1.388       .  A
C2149      H2160   1.084       .  S
C2150      C2151   1.399       .  A
C2150      H2161   1.084       .  S
C2151      C2152   1.420       .  A
C2151      C2156   1.401       .  A
C2152      C2153   1.415       .  A
C2153      C2154   1.397       .  A
C2153      H2162   1.078       .  S
C2154      C2155   1.402       .  A
C2154      H2163   1.082       .  S
C2155      C2156   1.404       .  A
C2156      H2164   1.084       .  S
C2165      C2166   1.399       .  A
C2165      C2170   1.398       .  A
C2166      C2167   1.395       .  A
C2166      H2179   1.083       .  S
C2167      C2168   1.415       .  A
C2167      H2180   1.077       .  S
C2168      C2174   1.425       .  A
C2168      C2169   1.422       .  A
C2169      C2171   1.398       .  A
C2169      C2170   1.397       .  A
C2170      H2181   1.085       .  S
C2171      C2172   1.385       .  A
C2171      H2182   1.084       .  S
C2172      C2173   1.397       .  A
C2172      H2919   1.084       .  S
C2173      C2174   1.423       .  A
C2173      C2178   1.397       .  A
C2174      C2175   1.415       .  A
C2175      C2176   1.393       .  A
C2175      H2184   1.077       .  S
C2176      C2177   1.399       .  A
C2176      H2185   1.083       .  S
C2177      C2178   1.396       .  A
C2178      H2922   1.085       .  S
H2183      C2908   1.084       .  S
H2186      C2914   1.085   1_545  S
C2187      C2188   1.400       .  A
C2187      C2192   1.403       .  A
C2188      C2189   1.393       .  A
C2188      H2201   1.083       .  S
C2189      C2190   1.414       .  A
C2189      H2202   1.077       .  S
C2190      C2196   1.428       .  A
C2190      C2191   1.423       .  A
C2191      C2193   1.400       .  A
C2191      C2192   1.407       .  A
C2192      H2203   1.084       .  S
C2193      C2194   1.391       .  A
C2193      H2204   1.084       .  S
C2194      C2195   1.400       .  A
C2194      H2205   1.084       .  S
C2195      C2196   1.423       .  A
C2195      C2200   1.405       .  A
C2196      C2197   1.416       .  A
C2197      C2198   1.393       .  A
C2197      H2206   1.077       .  S
C2198      C2199   1.397       .  A
C2198      H2207   1.084       .  S
C2199      C2200   1.399       .  A
C2200      H2208   1.085       .  S
O2209     Cr2227   2.001   1_556  S
O2209      C2217   1.264       .  A
O2210     Cr2227   1.983   1_556  S
O2210      C2211   1.260       .  A
C2211      O2212   1.266       .  A
C2211      C2857   1.471       .  S
O2212     Cr2228   2.006       .  S
O2213     Cr2228   1.982       .  S
O2213      C2214   1.259       .  A
C2214      O2215   1.264       .  A
C2214      C2825   1.471       .  S
O2215     Cr2229   2.009       .  S
O2216     Cr2229   1.980       .  S
O2216      C2217   1.261       .  A
C2217      C2879   1.468       .  S
O2218     Cr2227   1.980       .  S
O2218      C2226   1.261       .  A
O2219     Cr2227   2.000       .  S
O2219      C2220   1.266       .  A
C2220      O2221   1.258       .  A
C2220      C2901   1.470       .  S
O2221     Cr2228   1.967   1_554  S
O2222     Cr2228   2.013   1_554  S
O2222      C2223   1.269       .  A
C2223      O2224   1.261       .  A
C2223      C2835   1.481       .  S
O2224     Cr2229   1.972   1_554  S
O2225     Cr2229   2.007   1_554  S
O2225      C2226   1.267       .  A
C2226      C2923   1.481       .  S
Cr2227     O2230   1.768       .  S
Cr2228     O2230   1.766   1_556  S
Cr2229     O2230   1.763   1_556  S
O2231     Cr2249   1.971   1_554  S
O2231      C2239   1.259       .  A
O2232     Cr2249   2.009   1_554  S
O2232      C2233   1.264       .  A
C2233      O2234   1.259       .  A
C2233      C2769   1.472       .  S
O2234     Cr2250   1.982       .  S
O2235     Cr2250   1.995       .  S
O2235      C2236   1.264       .  A
C2236      O2237   1.261       .  A
C2236      C2791   1.476       .  S
O2237     Cr2251   1.980   1_554  S
O2238     Cr2251   2.009   1_554  S
O2238      C2239   1.266       .  A
C2239      C2715   1.467       .  S
O2240     Cr2249   2.007       .  S
O2240      C2248   1.266       .  A
O2241     Cr2249   1.971       .  S
O2241      C2242   1.261       .  A
C2242      O2243   1.267       .  A
C2242      C2737   1.473       .  S
O2243     Cr2250   2.002   1_556  S
O2244     Cr2250   1.982   1_556  S
O2244      C2245   1.262       .  A
C2245      O2246   1.267       .  A
C2245      C2747   1.484       .  S
O2246     Cr2251   2.005       .  S
O2247     Cr2251   1.973       .  S
O2247      C2248   1.260       .  A
C2248      C2693   1.478       .  S
Cr2249     O2252   1.770       .  S
Cr2250     O2252   1.763   1_554  S
Cr2251     O2252   1.769       .  S
C2253      C2254   1.418   1_545  A
C2254      C2299   1.490       .  S
C2255      C2308   1.494       .  S
C2255      C2256   1.416       .  A
C2257      C2279   1.490       .  S
C2257      C2258   1.417       .  A
C2258      C2288   1.493       .  S
C2259      C2703   1.483       .  S
C2259      C2260   1.401       .  A
C2259      C2264   1.401       .  A
C2260      C2261   1.403       .  A
C2260      H2265   1.082       .  S
C2262      C2263   1.403       .  A
C2262      H2266   1.083       .  S
C2263      C2659   1.485       .  S
C2264      H2267   1.082       .  S
C2268      C2649   1.472       .  S
C2268      C2269   1.400       .  A
C2268      C2273   1.400       .  A
C2269      C2270   1.403       .  A
C2269      H2274   1.084       .  S
C2271      C2272   1.398       .  A
C2271      H2275   1.084       .  S
C2272      C2913   1.472       .  S
C2273      H2276   1.084       .  S
C2277      C2781   1.488       .  S
C2277      C2278   1.406       .  A
C2277      C2282   1.405       .  A
C2278      C2279   1.407       .  A
C2278      H2283   1.083       .  S
C2279      C2280   1.399       .  A
C2280      C2281   1.399       .  A
C2280      H2284   1.084       .  S
C2281      C2627   1.478       .  S
C2281      C2282   1.402       .  A
C2282      H2285   1.083       .  S
C2286      C2847   1.479       .  S
C2286      C2287   1.402       .  A
C2286      C2291   1.405       .  A
C2287      C2288   1.403       .  A
C2287      H2292   1.084       .  S
C2289      C2290   1.401       .  A
C2289      H2293   1.084       .  S
C2290      C2605   1.476       .  S
C2291      H2294   1.084       .  S
C2295      C2935   1.472       .  S
C2295      C2296   1.400       .  A
C2295      C2300   1.401       .  A
C2296      C2297   1.400       .  A
C2296      H2301   1.084       .  S
C2297      C2571   1.473       .  S
C2297      C2298   1.400       .  A
C2298      C2299   1.403       .  A
C2298      H2302   1.084       .  S
C2299      C2300   1.405       .  A
C2300      H2303   1.084       .  S
C2304      C2803   1.485       .  S
C2304      C2309   1.405       .  A
C2305      C2306   1.405       .  A
C2305      H2310   1.082       .  S
C2306      C2561   1.491       .  S
C2306      C2307   1.406       .  A
C2307      C2308   1.403       .  A
C2307      H2311   1.082       .  S
C2309      H2312   1.083       .  S
O2313     Cr2331   2.004       .  S
O2313      C2321   1.263       .  A
O2314     Cr2331   1.976       .  S
O2314      C2315   1.262       .  A
C2315      O2316   1.264       .  A
C2315      C2505   1.473       .  S
O2316     Cr2332   1.996       .  S
O2317     Cr2332   1.969       .  S
O2317      C2318   1.259       .  A
C2318      O2319   1.268       .  A
C2318      C2527   1.482       .  S
O2319     Cr2333   2.013       .  S
O2320     Cr2333   1.979       .  S
O2320      C2321   1.259       .  A
C2321      C2483   1.471       .  S
O2322     Cr2331   1.975       .  S
O2322      C2330   1.262       .  A
O2323     Cr2331   2.001       .  S
O2323      C2324   1.265       .  A
C2324      O2325   1.259       .  A
C2324      C2637   1.477       .  S
O2325     Cr2332   1.977       .  S
O2326     Cr2332   1.992       .  S
O2326      C2327   1.263       .  A
C2327      O2328   1.260       .  A
C2327      C2583   1.475       .  S
O2328     Cr2333   1.976       .  S
O2329     Cr2333   2.015       .  S
O2329      C2330   1.270       .  A
C2330      C2593   1.483       .  S
Cr2331     O2334   1.769       .  S
Cr2332     O2334   1.769       .  S
Cr2333     O2334   1.765       .  S
O2335     Cr2353   1.980       .  S
O2335      C2343   1.259       .  A
O2336     Cr2353   1.995       .  S
O2336      C2337   1.262       .  A
C2337      O2338   1.260       .  A
C2337      C2615   1.474       .  S
O2338     Cr2354   1.976       .  S
O2339     Cr2354   2.001       .  S
O2339      C2340   1.266       .  A
C2340      O2341   1.261       .  A
C2340      C2671   1.477       .  S
O2341     Cr2355   1.978       .  S
O2342     Cr2355   2.003       .  S
O2342      C2343   1.264       .  A
C2343      C2549   1.469       .  S
O2344     Cr2353   1.998       .  S
O2344      C2352   1.266       .  A
O2345     Cr2353   1.975       .  S
O2345      C2346   1.261       .  A
C2346      O2347   1.266       .  A
C2346      C2417   1.478       .  S
O2347     Cr2354   2.002       .  S
O2348     Cr2354   1.981       .  S
O2348      C2349   1.261       .  A
C2349      O2350   1.266       .  A
C2349      C2473   1.484       .  S
O2350     Cr2355   2.008       .  S
O2351     Cr2355   1.981       .  S
O2351      C2352   1.262       .  A
C2352      C2451   1.474       .  S
Cr2353     O2356   1.769       .  S
Cr2354     O2356   1.770       .  S
Cr2355     O2356   1.774       .  S
C2357      C2367   1.493       .  S
C2358      C2401   1.485       .  S
C2358      C2359   1.417       .  A
C2359      C2410   1.496       .  S
C2359      C2360   1.416       .  A
C2360      C2376   1.485   1_565  S
C2361      C2385   1.496       .  S
C2362      C2392   1.487       .  S
C2363      C2517   1.482       .  S
C2363      C2368   1.402       .  A
C2364      C2365   1.400   1_545  A
C2364      H2369   1.083       .  S
C2365      C2869   1.486       .  S
C2365      C2366   1.405       .  A
C2366      C2367   1.404       .  A
C2366      H2370   1.083       .  S
C2368      H2371   1.083       .  S
C2372      C2461   1.471       .  S
C2372      C2373   1.402   1_565  A
C2372      C2377   1.400       .  A
C2373      H2378   1.084       .  S
C2374      C2681   1.467       .  S
C2374      C2375   1.395       .  A
C2375      H2379   1.084       .  S
C2376      C2377   1.405   1_545  A
C2377      H2380   1.084       .  S
C2381      C2813   1.493       .  S
C2381      C2386   1.408       .  A
C2382      C2383   1.407   1_455  A
C2382      H2387   1.081       .  S
C2383      C2495   1.490       .  S
C2383      C2384   1.402       .  A
C2384      C2385   1.401   1_655  A
C2384      H2388   1.082       .  S
C2386      H2389   1.083       .  S
C2390      C2725   1.478       .  S
C2390      C2391   1.402       .  A
C2390      C2395   1.403       .  A
C2391      C2392   1.403       .  A
C2391      H2396   1.084       .  S
C2392      C2393   1.401       .  A
C2393      C2394   1.399       .  A
C2393      H2397   1.084       .  S
C2394      C2429   1.475       .  S
C2394      C2395   1.400       .  A
C2395      H2398   1.084       .  S
C2399      C2439   1.484       .  S
C2399      C2400   1.401       .  A
C2399      C2404   1.409       .  A
C2400      H2405   1.083       .  S
C2401      C2402   1.401       .  A
C2402      C2403   1.399       .  A
C2402      H2406   1.084       .  S
C2403      C2759   1.479       .  S
C2404      H2407   1.083       .  S
C2408      C2539   1.491       .  S
C2408      C2409   1.407       .  A
C2408      C2413   1.404       .  A
C2409      C2410   1.405       .  A
C2409      H2414   1.083       .  S
C2410      C2411   1.404       .  A
C2411      C2412   1.403       .  A
C2411      H2415   1.082       .  S
C2412      C2891   1.488       .  S
C2412      C2413   1.404       .  A
C2413      H2416   1.082       .  S
C2417      C2418   1.400       .  A
C2417      C2422   1.402       .  A
C2418      C2419   1.396       .  A
C2418      H2431   1.083       .  S
C2419      C2420   1.415       .  A
C2419      H2432   1.077       .  S
C2420      C2426   1.428       .  A
C2420      C2421   1.422       .  A
C2421      C2423   1.399       .  A
C2421      C2422   1.402       .  A
C2422      H2433   1.084       .  S
C2423      C2424   1.388       .  A
C2423      H2434   1.084       .  S
C2424      C2425   1.398       .  A
C2424      H2435   1.084       .  S
C2425      C2426   1.423       .  A
C2425      C2430   1.402       .  A
C2426      C2427   1.415       .  A
C2427      C2428   1.394       .  A
C2427      H2436   1.077       .  S
C2428      C2429   1.399       .  A
C2428      H2437   1.083       .  S
C2429      C2430   1.398       .  A
C2430      H2438   1.085       .  S
C2439      C2440   1.398       .  A
C2439      C2444   1.407       .  A
C2440      C2441   1.391       .  A
C2440      H2453   1.083       .  S
C2441      C2442   1.414       .  A
C2441      H2454   1.076       .  S
C2442      C2448   1.426       .  A
C2442      C2443   1.421       .  A
C2443      C2445   1.401       .  A
C2443      C2444   1.407       .  A
C2444      H2455   1.085       .  S
C2445      C2446   1.393       .  A
C2445      H2456   1.083       .  S
C2446      C2447   1.401       .  A
C2446      H2457   1.084       .  S
C2447      C2448   1.423       .  A
C2447      C2452   1.409       .  A
C2448      C2449   1.412       .  A
C2449      C2450   1.389       .  A
C2449      H2458   1.076       .  S
C2450      C2451   1.398       .  A
C2450      H2459   1.084       .  S
C2451      C2452   1.402       .  A
C2452      H2460   1.084       .  S
C2461      C2462   1.396       .  A
C2461      C2466   1.398       .  A
C2462      C2463   1.397       .  A
C2462      H2475   1.084   1_565  S
C2463      C2464   1.417       .  A
C2463      H2476   1.077       .  S
C2464      C2470   1.431       .  A
C2464      C2465   1.424       .  A
C2465      C2467   1.399       .  A
C2465      C2466   1.405       .  A
C2466      H2477   1.085       .  S
C2467      C2468   1.390       .  A
C2467      H2478   1.084       .  S
C2468      C2469   1.400       .  A
C2468      H2479   1.084       .  S
C2469      C2470   1.423       .  A
C2469      C2474   1.407       .  A
C2470      C2471   1.414       .  A
C2471      C2472   1.396       .  A
C2471      H2480   1.077       .  S
C2472      C2473   1.402       .  A
C2472      H2481   1.083       .  S
C2473      C2474   1.403       .  A
C2474      H2482   1.084       .  S
C2483      C2484   1.400       .  A
C2483      C2488   1.397       .  A
C2484      C2485   1.396       .  A
C2484      H2497   1.084       .  S
C2485      C2486   1.414       .  A
C2485      H2498   1.078       .  S
C2486      C2492   1.427       .  A
C2486      C2487   1.423       .  A
C2487      C2489   1.398       .  A
C2487      C2488   1.402       .  A
C2488      H2499   1.085       .  S
C2489      C2490   1.388       .  A
C2489      H2500   1.084       .  S
C2490      C2491   1.399       .  A
C2490      H2501   1.084       .  S
C2491      C2492   1.420       .  A
C2491      C2496   1.400       .  A
C2492      C2493   1.414       .  A
C2493      C2494   1.397       .  A
C2493      H2502   1.078       .  S
C2494      C2495   1.404       .  A
C2494      H2503   1.082       .  S
C2495      C2496   1.403       .  A
C2496      H2504   1.083       .  S
C2505      C2506   1.402       .  A
C2505      C2510   1.397       .  A
C2506      C2507   1.396       .  A
C2506      H2519   1.083       .  S
C2507      C2508   1.414       .  A
C2507      H2520   1.078       .  S
C2508      C2514   1.428       .  A
C2508      C2509   1.424       .  A
C2509      C2511   1.397       .  A
C2509      C2510   1.400       .  A
C2510      H2521   1.085       .  S
C2511      C2512   1.385       .  A
C2511      H2522   1.084       .  S
C2512      C2513   1.398       .  A
C2512      H2523   1.084       .  S
C2513      C2514   1.421       .  A
C2513      C2518   1.397       .  A
C2514      C2515   1.417       .  A
C2515      C2516   1.398       .  A
C2515      H2524   1.078       .  S
C2516      C2517   1.401       .  A
C2516      H2525   1.083       .  S
C2517      C2518   1.400       .  A
C2518      H2526   1.084       .  S
C2527      C2528   1.402       .  A
C2527      C2532   1.402       .  A
C2528      C2529   1.396       .  A
C2528      H2541   1.083       .  S
C2529      C2530   1.415       .  A
C2529      H2542   1.077       .  S
C2530      C2536   1.430       .  A
C2530      C2531   1.422       .  A
C2531      C2533   1.399       .  A
C2531      C2532   1.405       .  A
C2532      H2543   1.084       .  S
C2533      C2534   1.390       .  A
C2533      H2544   1.084       .  S
C2534      C2535   1.399       .  A
C2534      H2545   1.083       .  S
C2535      C2536   1.422       .  A
C2535      C2540   1.405       .  A
C2536      C2537   1.413       .  A
C2537      C2538   1.395       .  A
C2537      H2546   1.077       .  S
C2538      C2539   1.404       .  A
C2538      H2547   1.082       .  S
C2539      C2540   1.403       .  A
C2540      H2548   1.084       .  S
C2549      C2550   1.398       .  A
C2549      C2554   1.399       .  A
C2550      C2551   1.392       .  A
C2550      H2563   1.084       .  S
C2551      C2552   1.413       .  A
C2551      H2564   1.077       .  S
C2552      C2558   1.427       .  A
C2552      C2553   1.423       .  A
C2553      C2555   1.399       .  A
C2553      C2554   1.405       .  A
C2554      H2565   1.085       .  S
C2555      C2556   1.391       .  A
C2555      H2566   1.084       .  S
C2556      C2557   1.401       .  A
C2556      H2567   1.084       .  S
C2557      C2558   1.420       .  A
C2557      C2562   1.404       .  A
C2558      C2559   1.413       .  A
C2559      C2560   1.394       .  A
C2559      H2568   1.077       .  S
C2560      C2561   1.402       .  A
C2560      H2569   1.082       .  S
C2561      C2562   1.407       .  A
C2562      H2570   1.083       .  S
C2571      C2572   1.398       .  A
C2571      C2576   1.398       .  A
C2572      C2573   1.394       .  A
C2572      H2585   1.083       .  S
C2573      C2574   1.415       .  A
C2573      H2586   1.077       .  S
C2574      C2580   1.427       .  A
C2574      C2575   1.424       .  A
C2575      C2577   1.398       .  A
C2575      C2576   1.401       .  A
C2576      H2587   1.085       .  S
C2577      C2578   1.387       .  A
C2577      H2588   1.084       .  S
C2578      C2579   1.399       .  A
C2578      H2589   1.084       .  S
C2579      C2580   1.421       .  A
C2579      C2584   1.400       .  A
C2580      C2581   1.416       .  A
C2581      C2582   1.396       .  A
C2581      H2590   1.077       .  S
C2582      C2583   1.399       .  A
C2582      H2591   1.083       .  S
C2583      C2584   1.401       .  A
C2584      H2592   1.085       .  S
C2593      C2594   1.402       .  A
C2593      C2598   1.402       .  A
C2594      C2595   1.399       .  A
C2594      H2607   1.083       .  S
C2595      C2596   1.416       .  A
C2595      H2608   1.078       .  S
C2596      C2602   1.431       .  A
C2596      C2597   1.422       .  A
C2597      C2599   1.399       .  A
C2597      C2598   1.404       .  A
C2598      H2609   1.084       .  S
C2599      C2600   1.389       .  A
C2599      H2610   1.084       .  S
C2600      C2601   1.398       .  A
C2600      H2611   1.084   1_655  S
C2601      C2602   1.424       .  A
C2601      C2606   1.404       .  A
C2602      C2603   1.416       .  A
C2603      C2604   1.397       .  A
C2603      H2612   1.078       .  S
C2604      C2605   1.400       .  A
C2604      H2613   1.083       .  S
C2605      C2606   1.398       .  A
C2606      H2614   1.085   1_655  S
C2615      C2616   1.401       .  A
C2615      C2620   1.399       .  A
C2616      C2617   1.394       .  A
C2616      H2629   1.084       .  S
C2617      C2618   1.414       .  A
C2617      H2630   1.077       .  S
C2618      C2624   1.427       .  A
C2618      C2619   1.423       .  A
C2619      C2621   1.399       .  A
C2619      C2620   1.402       .  A
C2620      H2631   1.085       .  S
C2621      C2622   1.388       .  A
C2621      H2632   1.084       .  S
C2622      C2623   1.399       .  A
C2622      H2633   1.084       .  S
C2623      C2624   1.422       .  A
C2623      C2628   1.401       .  A
C2624      C2625   1.415       .  A
C2625      C2626   1.394       .  A
C2625      H2634   1.077       .  S
C2626      C2627   1.400       .  A
C2626      H2635   1.084       .  S
C2627      C2628   1.400       .  A
C2628      H2636   1.085       .  S
C2637      C2638   1.400       .  A
C2637      C2642   1.401       .  A
C2638      C2639   1.397       .  A
C2638      H2651   1.083       .  S
C2639      C2640   1.416       .  A
C2639      H2652   1.077       .  S
C2640      C2646   1.428       .  A
C2640      C2641   1.422       .  A
C2641      C2643   1.399       .  A
C2641      C2642   1.400       .  A
C2642      H2653   1.085       .  S
C2643      C2644   1.387       .  A
C2643      H2654   1.084       .  S
C2644      C2645   1.398       .  A
C2644      H2655   1.084       .  S
C2645      C2646   1.424       .  A
C2645      C2650   1.401       .  A
C2646      C2647   1.415       .  A
C2647      C2648   1.395       .  A
C2647      H2656   1.077       .  S
C2648      C2649   1.398       .  A
C2648      H2657   1.083       .  S
C2649      C2650   1.397       .  A
C2659      C2660   1.401       .  A
C2659      C2664   1.403       .  A
C2660      C2661   1.396       .  A
C2660      H2673   1.083       .  S
C2661      C2662   1.416       .  A
C2661      H2674   1.077       .  S
C2662      C2668   1.428       .  A
C2662      C2663   1.421       .  A
C2663      C2665   1.399       .  A
C2663      C2664   1.400       .  A
C2664      H2675   1.084       .  S
C2665      C2666   1.388       .  A
C2665      H2676   1.084       .  S
C2666      C2667   1.399       .  A
C2666      H2677   1.084       .  S
C2667      C2668   1.424       .  A
C2667      C2672   1.404       .  A
C2668      C2669   1.414       .  A
C2669      C2670   1.394       .  A
C2669      H2678   1.077       .  S
C2670      C2671   1.401       .  A
C2670      H2679   1.083       .  S
C2671      C2672   1.400       .  A
C2672      H2680   1.085       .  S
C2681      C2682   1.397       .  A
C2681      C2686   1.396       .  A
C2682      C2683   1.394       .  A
C2682      H2695   1.084       .  S
C2683      C2684   1.415       .  A
C2683      H2696   1.077       .  S
C2684      C2690   1.427       .  A
C2684      C2685   1.424       .  A
C2685      C2687   1.398       .  A
C2685      C2686   1.402       .  A
C2687      C2688   1.388       .  A
C2688      C2689   1.399       .  A
C2688      H2699   1.084       .  S
C2689      C2690   1.422       .  A
C2689      C2694   1.402       .  A
C2690      C2691   1.415       .  A
C2691      C2692   1.395       .  A
C2691      H2700   1.077       .  S
C2692      C2693   1.401       .  A
C2692      H2701   1.083       .  S
C2693      C2694   1.402       .  A
C2694      H2702   1.084       .  S
C2703      C2704   1.402       .  A
C2703      C2708   1.402       .  A
C2704      C2705   1.390       .  A
C2704      H2717   1.083       .  S
C2705      C2706   1.411       .  A
C2705      H2718   1.078       .  S
C2706      C2712   1.424       .  A
C2706      C2707   1.421       .  A
C2707      C2709   1.399       .  A
C2707      C2708   1.403       .  A
C2708      H2719   1.083       .  S
C2709      C2710   1.390       .  A
C2709      H2720   1.084       .  S
C2710      C2711   1.400       .  A
C2710      H2721   1.084       .  S
C2711      C2712   1.421       .  A
C2711      C2716   1.402       .  A
C2712      C2713   1.415       .  A
C2713      C2714   1.393       .  A
C2713      H2722   1.077       .  S
C2714      C2715   1.397       .  A
C2714      H2723   1.084       .  S
C2715      C2716   1.400       .  A
C2716      H2724   1.085       .  S
C2725      C2726   1.398       .  A
C2725      C2730   1.402       .  A
C2726      C2727   1.390       .  A
C2726      H2739   1.083       .  S
C2727      C2728   1.413       .  A
C2727      H2740   1.076       .  S
C2728      C2734   1.425       .  A
C2728      C2729   1.422       .  A
C2729      C2731   1.400       .  A
C2729      C2730   1.405       .  A
C2730      H2741   1.084       .  S
C2731      C2732   1.392       .  A
C2731      H2742   1.084       .  S
C2732      C2733   1.401       .  A
C2732      H2743   1.084       .  S
C2733      C2734   1.422       .  A
C2733      C2738   1.406       .  A
C2734      C2735   1.413       .  A
C2735      C2736   1.389       .  A
C2735      H2744   1.076       .  S
C2736      C2737   1.398       .  A
C2736      H2745   1.084       .  S
C2737      C2738   1.402       .  A
C2738      H2746   1.084       .  S
C2747      C2748   1.402       .  A
C2747      C2752   1.402       .  A
C2748      C2749   1.400       .  A
C2748      H2761   1.083       .  S
C2749      C2750   1.417       .  A
C2749      H2762   1.077       .  S
C2750      C2756   1.432       .  A
C2750      C2751   1.422       .  A
C2751      C2753   1.399       .  A
C2751      C2752   1.403       .  A
C2752      H2763   1.084       .  S
C2753      C2754   1.388       .  A
C2753      H2764   1.084       .  S
C2754      C2755   1.398       .  A
C2754      H2765   1.084   1_655  S
C2755      C2756   1.424       .  A
C2755      C2760   1.404       .  A
C2756      C2757   1.415       .  A
C2757      C2758   1.397       .  A
C2757      H2766   1.077       .  S
C2758      C2759   1.400       .  A
C2758      H2767   1.083       .  S
C2759      C2760   1.398       .  A
C2760      H2768   1.085   1_655  S
C2769      C2770   1.398       .  A
C2769      C2774   1.400       .  A
C2770      C2771   1.396       .  A
C2770      H2783   1.084       .  S
C2771      C2772   1.416       .  A
C2771      H2784   1.078       .  S
C2772      C2778   1.428       .  A
C2772      C2773   1.422       .  A
C2773      C2775   1.400       .  A
C2773      C2774   1.405       .  A
C2774      H2785   1.085       .  S
C2775      C2776   1.391       .  A
C2775      H2786   1.084       .  S
C2776      C2777   1.400       .  A
C2776      H2787   1.084       .  S
C2777      C2778   1.422       .  A
C2777      C2782   1.406       .  A
C2778      C2779   1.412       .  A
C2779      C2780   1.394       .  A
C2779      H2788   1.078       .  S
C2780      C2781   1.403       .  A
C2780      H2789   1.083       .  S
C2781      C2782   1.403       .  A
C2782      H2790   1.084       .  S
C2791      C2792   1.400       .  A
C2791      C2796   1.401       .  A
C2792      C2793   1.391       .  A
C2792      H2805   1.084       .  S
C2793      C2794   1.413       .  A
C2793      H2806   1.077       .  S
C2794      C2800   1.427       .  A
C2794      C2795   1.424       .  A
C2795      C2797   1.400       .  A
C2795      C2796   1.406       .  A
C2796      H2807   1.085       .  S
C2797      C2798   1.391       .  A
C2797      H2808   1.084       .  S
C2798      C2799   1.401       .  A
C2798      H2809   1.084   1_655  S
C2799      C2800   1.421       .  A
C2799      C2804   1.404       .  A
C2800      C2801   1.415       .  A
C2801      C2802   1.393       .  A
C2801      H2810   1.077       .  S
C2802      C2803   1.400       .  A
C2802      H2811   1.083       .  S
C2803      C2804   1.405       .  A
C2804      H2812   1.084   1_655  S
C2813      C2814   1.402       .  A
C2813      C2818   1.406       .  A
C2814      C2815   1.399       .  A
C2814      H2827   1.083       .  S
C2815      C2816   1.416       .  A
C2815      H2828   1.077       .  S
C2816      C2822   1.431       .  A
C2816      C2817   1.421       .  A
C2817      C2819   1.400       .  A
C2817      C2818   1.405       .  A
C2818      H2829   1.084       .  S
C2819      C2820   1.390       .  A
C2819      H2830   1.084       .  S
C2820      C2821   1.399       .  A
C2820      H2831   1.084       .  S
C2821      C2822   1.424       .  A
C2821      C2826   1.407       .  A
C2822      C2823   1.415       .  A
C2823      C2824   1.396       .  A
C2823      H2832   1.077       .  S
C2824      C2825   1.398       .  A
C2824      H2833   1.084       .  S
C2825      C2826   1.398       .  A
C2826      H2834   1.085       .  S
C2835      C2836   1.402       .  A
C2835      C2840   1.402       .  A
C2836      C2837   1.396       .  A
C2836      H2849   1.083       .  S
C2837      C2838   1.414       .  A
C2837      H2850   1.077       .  S
C2838      C2844   1.429       .  A
C2838      C2839   1.422       .  A
C2839      C2841   1.399       .  A
C2839      C2840   1.404       .  A
C2840      H2851   1.084       .  S
C2841      C2842   1.389       .  A
C2841      H2852   1.084       .  S
C2842      C2843   1.399       .  A
C2843      C2844   1.423       .  A
C2843      C2848   1.404       .  A
C2844      C2845   1.415       .  A
C2845      C2846   1.396       .  A
C2845      H2854   1.077       .  S
C2846      C2847   1.400       .  A
C2846      H2855   1.084       .  S
C2847      C2848   1.400       .  A
C2857      C2858   1.398       .  A
C2857      C2862   1.400       .  A
C2858      C2859   1.393       .  A
C2858      H2871   1.084       .  S
C2859      C2860   1.413       .  A
C2859      H2872   1.077       .  S
C2860      C2866   1.427       .  A
C2860      C2861   1.424       .  A
C2861      C2863   1.400       .  A
C2861      C2862   1.407       .  A
C2862      H2873   1.085       .  S
C2863      C2864   1.391       .  A
C2863      H2874   1.084       .  S
C2864      C2865   1.401       .  A
C2864      H2875   1.084       .  S
C2865      C2866   1.420       .  A
C2865      C2870   1.403       .  A
C2866      C2867   1.415       .  A
C2867      C2868   1.394       .  A
C2867      H2876   1.077       .  S
C2868      C2869   1.399       .  A
C2868      H2877   1.083       .  S
C2869      C2870   1.405       .  A
C2870      H2878   1.084       .  S
C2879      C2880   1.399       .  A
C2879      C2884   1.397       .  A
C2880      C2881   1.394       .  A
C2880      H2893   1.084       .  S
C2881      C2882   1.414       .  A
C2881      H2894   1.078       .  S
C2882      C2888   1.427       .  A
C2882      C2883   1.423       .  A
C2883      C2885   1.398       .  A
C2883      C2884   1.403       .  A
C2884      H2895   1.085       .  S
C2885      C2886   1.389       .  A
C2885      H2896   1.084       .  S
C2886      C2887   1.400       .  A
C2886      H2897   1.084       .  S
C2887      C2888   1.420       .  A
C2887      C2892   1.401       .  A
C2888      C2889   1.414       .  A
C2889      C2890   1.396       .  A
C2889      H2898   1.078       .  S
C2890      C2891   1.402       .  A
C2890      H2899   1.083       .  S
C2891      C2892   1.404       .  A
C2892      H2900   1.084       .  S
C2901      C2902   1.400       .  A
C2901      C2906   1.398       .  A
C2902      C2903   1.395       .  A
C2902      H2915   1.083       .  S
C2903      C2904   1.415       .  A
C2903      H2916   1.077       .  S
C2904      C2910   1.425       .  A
C2904      C2905   1.423       .  A
C2905      C2907   1.398       .  A
C2905      C2906   1.398       .  A
C2906      H2917   1.085       .  S
C2907      C2908   1.385       .  A
C2907      H2918   1.084       .  S
C2908      C2909   1.397       .  A
C2909      C2910   1.423       .  A
C2909      C2914   1.397       .  A
C2910      C2911   1.415       .  A
C2911      C2912   1.394       .  A
C2911      H2920   1.077       .  S
C2912      C2913   1.400       .  A
C2912      H2921   1.083       .  S
C2913      C2914   1.396       .  A
C2923      C2924   1.400       .  A
C2923      C2928   1.403       .  A
C2924      C2925   1.393       .  A
C2924      H2937   1.083       .  S
C2925      C2926   1.413       .  A
C2925      H2938   1.077       .  S
C2926      C2932   1.428       .  A
C2926      C2927   1.423       .  A
C2927      C2929   1.401       .  A
C2927      C2928   1.408       .  A
C2928      H2939   1.084       .  S
C2929      C2930   1.392       .  A
C2929      H2940   1.084       .  S
C2930      C2931   1.400       .  A
C2930      H2941   1.084       .  S
C2931      C2932   1.423       .  A
C2931      C2936   1.405       .  A
C2932      C2933   1.416       .  A
C2933      C2934   1.393       .  A
C2933      H2942   1.077       .  S
C2934      C2935   1.396       .  A
C2934      H2943   1.084       .  S
C2935      C2936   1.400       .  A
C2936      H2944   1.085       .  S
