geometry optimzed in LAMMPS
_audit_creation_date              2020-11-30 
_audit_creation_method            'lammps2cif' 
_symmetry_space_group_name_H-M    'P1' 
_symmetry_Int_Tables_number       1 
_symmetry_cell_setting            triclinic 
loop_ 
_symmetry_equiv_pos_as_xyz 
  x,y,z 
_cell_length_a                    39.54772745 
_cell_length_b                    40.26127216304192 
_cell_length_c                    67.78708383116664 
_cell_angle_alpha                 89.08714087571929 
_cell_angle_beta                  90.5223196631599 
_cell_angle_gamma                 89.89362964366289 
loop_ 
_atom_site_label 
_atom_site_type_symbol 
_atom_site_fract_x 
_atom_site_fract_y 
_atom_site_fract_z 
_atom_site_charge 
N1          N  0.37363557  0.30545417  0.37496043    -0.36300
N2          N  0.39238428  0.25455500  0.34634400    -0.56900
N3          N  0.37946572  0.20425140  0.37652738    -0.36300
N4          N  0.35790890  0.25546021  0.40417218    -0.56900
C5          C  0.37666781  0.32398048  0.35827236     0.27300
C6          C  0.35788547  0.32446308  0.38844158     0.27300
C7          C  0.38410493  0.18475709  0.36067158     0.27300
C8          C  0.36513098  0.18522484  0.39079129     0.27300
C9          C  0.40298292  0.28194321  0.33634032     0.35900
C10         C  0.40491677  0.22785589  0.33688259     0.35900
C11         C  0.35457119  0.28243714  0.41563417     0.35900
C12         C  0.35722245  0.22867017  0.41637250     0.35900
C13         C  0.36264560  0.35512827  0.36114060    -0.21600
C14         C  0.35097270  0.35548143  0.38016394    -0.21600
C15         C  0.37307590  0.15282089  0.36504245    -0.21600
C16         C  0.36106559  0.15312409  0.38398274    -0.21600
C17         C  0.42153033  0.27255485  0.32007540    -0.22700
C18         C  0.42258623  0.23830989  0.32035883    -0.22600
C19         C  0.35153918  0.27272442  0.43523034    -0.22700
C20         C  0.35320352  0.23861486  0.43570154    -0.22600
C21         C  0.39557541  0.31524891  0.34148497    -0.18000
C22         C  0.35165278  0.31545472  0.40840291    -0.18000
C23         C  0.35706730  0.19536832  0.41014524    -0.18000
C24         C  0.40020074  0.19420257  0.34286155    -0.18000
H25         H  0.36194026  0.37587739  0.35079301     0.14900
H26         H  0.33934215  0.37649755  0.38720971     0.14900
H27         H  0.37391354  0.13136216  0.35564092     0.14900
H28         H  0.35083797  0.13192283  0.39190752     0.14900
H29         H  0.43310395  0.28867922  0.30915038     0.13200
H30         H  0.43523709  0.22289228  0.30975855     0.13200
H31         H  0.34784805  0.28850546  0.44780813     0.13200
H32         H  0.35102596  0.22289248  0.44872740     0.13200
H33         H  0.38604820  0.28307238  0.37776194     0.26500
H34         H  0.38901728  0.22806428  0.37832622     0.26500
N35         N  0.14698146  0.20671428  0.37453262    -0.36300
N36         N  0.13806844  0.25831919  0.40283247    -0.56900
N37         N  0.14235012  0.30547573  0.37163531    -0.36300
N38         N  0.15108074  0.25384915  0.34209711    -0.56900
C39         C  0.15461046  0.19060112  0.39167297     0.27300
C40         C  0.15853838  0.18788054  0.35967258     0.27300
C41         C  0.14919494  0.32456230  0.38741669     0.27300
C42         C  0.15279841  0.32231375  0.35547512     0.27300
C43         C  0.13138987  0.23200076  0.41451044     0.35900
C44         C  0.12928484  0.28541722  0.41289303     0.35900
C45         C  0.14388488  0.22585099  0.33206991     0.35900
C46         C  0.14153258  0.27987684  0.33043856     0.35900
C47         C  0.17172313  0.16136084  0.38762645    -0.21600
C48         C  0.17393912  0.15954234  0.36740627    -0.21600
C49         C  0.16510629  0.35351527  0.38124444    -0.21600
C50         C  0.16675956  0.35239356  0.36100397    -0.21600
C51         C  0.11712503  0.24219727  0.43202041    -0.22700
C52         C  0.11607151  0.27638459  0.43105912    -0.22600
C53         C  0.13050593  0.23418094  0.31367235    -0.22700
C54         C  0.12957999  0.26846684  0.31251096    -0.22600
C55         C  0.14371727  0.20015331  0.41064980    -0.18000
C56         C  0.15030982  0.19320995  0.33950688    -0.18000
C57         C  0.14384255  0.31358142  0.33609190    -0.18000
C58         C  0.13857455  0.31758011  0.40689031    -0.18000
H59         H  0.18056597  0.14263975  0.39809802     0.14900
H60         H  0.18451365  0.13914411  0.35926018     0.14900
H61         H  0.17313325  0.37404762  0.39026372     0.14900
H62         H  0.17627071  0.37198895  0.35149942     0.14900
H63         H  0.11042884  0.22679477  0.44461710     0.13200
H64         H  0.10820145  0.29270898  0.44269823     0.13200
H65         H  0.12206046  0.21742501  0.30234081     0.13200
H66         H  0.12036733  0.28327367  0.30012032     0.13200
H67         H  0.13045014  0.22673180  0.37287233     0.26500
H68         H  0.12666937  0.28472700  0.37138921     0.26500
C69         C  0.17742189  0.42498729  0.45531296     0.42800
N70         N  0.18326166  0.46845446  0.47251616     0.01600
C71         C  0.32824685  0.06698437  0.47742500    -0.06200
H72         H  0.34640095  0.43717981  0.48528936     0.07100
C73         C  0.28054092  0.44378014  0.54726260    -0.06600
Co74       Co  0.24777138  0.00622624  0.46215822     0.74200
N75         N  0.30590939  0.47070977  0.47761827    -0.25800
Co76       Co  0.30454197  0.00418560  0.50153781     0.74100
C77         C  0.31351751  0.43035759  0.54243509     0.42900
N78         N  0.20114429  0.46474432  0.53011023     0.01300
N79         N  0.30121308  0.46953456  0.52187771     0.01400
N80         N  0.29071053  0.06638554  0.45217441    -0.46600
H81         H  0.22414222  0.43719810  0.43666875     0.07100
N82         N  0.28375896  0.47132139  0.46293646     0.01700
N83         N  0.30031668  0.04029642  0.52333603     0.01400
C84         C  0.30746349  0.08310028  0.54175287     0.43000
N85         N  0.17830882  0.46531103  0.51579897    -0.25200
C86         C  0.20940189  0.07103008  0.45018968    -0.06100
N87         N  0.16351613  0.44230167  0.46998025    -0.46300
N88         N  0.32081124  0.06575101  0.52670799    -0.46500
C89         C  0.17945497  0.08806164  0.45708970     0.42800
N90         N  0.28535558  0.04165842  0.46475456     0.01600
N91         N  0.17795221  0.04073034  0.51645742    -0.25200
N92         N  0.20878757  0.46955427  0.46010487    -0.25700
N93         N  0.19994384  0.03967333  0.53117057     0.01300
H94         H  0.13792711  0.07531102  0.50860414     0.07200
H95         H  0.25844720  0.07107688  0.55874353     0.07200
N96         N  0.30699524  0.04123045  0.47964468    -0.25800
N97         N  0.27531923  0.46811623  0.53398851    -0.25400
N98         N  0.18501400  0.04267464  0.47332325     0.01600
C99         C  0.31529700  0.42891939  0.45650781     0.43000
C100        C  0.15954615  0.43759208  0.51717531    -0.06600
N101        N  0.27425121  0.03965228  0.53530641    -0.25400
H102        H  0.26401066  0.43745814  0.55936046     0.07200
N103        N  0.28846964  0.44715981  0.45022939    -0.46600
H104        H  0.13915924  0.43065896  0.50734612     0.07200
C105        C  0.16988514  0.08232885  0.53685752     0.42900
C106        C  0.20689550  0.44314729  0.44838687    -0.06100
Co107      Co  0.18006772  0.00537131  0.49446962     0.73800
N108        N  0.19962063  0.43756981  0.54124111    -0.46300
C109        C  0.31740439  0.08368588  0.45899467     0.43100
N110        N  0.16536116  0.06915806  0.47131095    -0.46300
Co111      Co  0.23663088  0.00342782  0.53348467     0.73900
C112        C  0.27659239  0.06541916  0.54746817    -0.06600
C113        C  0.32683272  0.44463723  0.47497983    -0.06200
N114        N  0.21090336  0.04313405  0.46116992    -0.25700
N115        N  0.32481027  0.44708862  0.52634836    -0.46500
H116        H  0.34815185  0.07297124  0.48770038     0.07100
C117        C  0.15766590  0.06719147  0.51871552    -0.06600
Cl118      Cl  0.24229659  0.00462092  0.49790482    -0.49600
C119        C  0.17446381  0.41905201  0.53373758     0.42900
H120        H  0.22708192  0.07853373  0.43890351     0.07100
N121        N  0.19605761  0.06409454  0.54364353    -0.46300
N122        N  0.38320124  0.30290471  0.61884442    -0.36300
N123        N  0.39629208  0.25095670  0.64762001    -0.56900
N124        N  0.38220196  0.20376003  0.61776948    -0.36300
N125        N  0.36971080  0.25551327  0.58802356    -0.56900
C126        C  0.39898726  0.31968609  0.63340038     0.27300
C127        C  0.38517379  0.32159743  0.60214145     0.27300
C128        C  0.39858723  0.18474505  0.63143449     0.27300
C129        C  0.38291468  0.18748788  0.60053160     0.27300
C130        C  0.39329952  0.27703841  0.65970802     0.35900
C131        C  0.39355959  0.22328928  0.65899491     0.35900
C132        C  0.35512253  0.28319326  0.58031484     0.35900
C133        C  0.35376227  0.22943730  0.57986197     0.35900
C134        C  0.41178748  0.34921678  0.62580102    -0.21600
C135        C  0.40314900  0.35038558  0.60603151    -0.21600
C136        C  0.41112563  0.15652695  0.62256371    -0.21600
C137        C  0.40072284  0.15802272  0.60305141    -0.21600
C138        C  0.38837845  0.26595733  0.67893633    -0.22700
C139        C  0.38861437  0.23175375  0.67848390    -0.22600
C140        C  0.32943361  0.27472421  0.56730308    -0.22700
C141        C  0.32901220  0.24046747  0.56671021    -0.22600
C142        C  0.39863363  0.31030603  0.65364516    -0.18000
C143        C  0.36621947  0.31558342  0.58467581    -0.18000
C144        C  0.36245799  0.19607059  0.58406301    -0.18000
C145        C  0.39875668  0.19088776  0.65194591    -0.18000
H146        H  0.42493476  0.36841249  0.63380083     0.14900
H147        H  0.40810680  0.37079148  0.59588200     0.14900
H148        H  0.42463674  0.13615003  0.62966484     0.14900
H149        H  0.40452094  0.13900758  0.59218022     0.14900
H150        H  0.38567641  0.28092364  0.69195090     0.13200
H151        H  0.38606830  0.21506820  0.69105436     0.13200
H152        H  0.31298226  0.29145055  0.55901829     0.13200
H153        H  0.31218264  0.22544540  0.55789479     0.13200
H154        H  0.36745192  0.28239574  0.62087215     0.26500
H155        H  0.36636251  0.22394388  0.62069193     0.26500
N156        N  0.13705370  0.20144529  0.62105460    -0.36300
N157        N  0.13960060  0.25266648  0.59102567    -0.56900
N158        N  0.13059345  0.30170509  0.62112853    -0.36300
N159        N  0.13059974  0.25009521  0.65183162    -0.56900
C160        C  0.14923688  0.18399106  0.60579883     0.27300
C161        C  0.14074638  0.18225546  0.63743185     0.27300
C162        C  0.13932613  0.32131928  0.60557939     0.27300
C163        C  0.13359350  0.32012071  0.63756505     0.27300
C164        C  0.13886182  0.22604222  0.57926920     0.35900
C165        C  0.13440695  0.27939149  0.57921544     0.35900
C166        C  0.12267725  0.22253519  0.66246402     0.35900
C167        C  0.12170150  0.27626919  0.66289575     0.35900
C168        C  0.16119437  0.15344837  0.61265378    -0.21600
C169        C  0.15556226  0.15226656  0.63265444    -0.21600
C170        C  0.14802095  0.35258032  0.61225020    -0.21600
C171        C  0.14393584  0.35195778  0.63239118    -0.21600
C172        C  0.13303677  0.23577823  0.55982999    -0.22700
C173        C  0.13032500  0.26975197  0.55978300    -0.22600
C174        C  0.10998808  0.23122029  0.68065791    -0.22700
C175        C  0.10981375  0.26531518  0.68103659    -0.22600
C176        C  0.14673538  0.19358712  0.58568891    -0.18000
C177        C  0.12722300  0.18966430  0.65599128    -0.18000
C178        C  0.12388305  0.30990990  0.65677097    -0.18000
C179        C  0.13760418  0.31238852  0.58545390    -0.18000
H180        H  0.17179950  0.13363165  0.60403699     0.14900
H181        H  0.16090454  0.13143782  0.64249337     0.14900
H182        H  0.15552023  0.37395258  0.60345577     0.14900
H183        H  0.14774932  0.37274935  0.64207576     0.14900
H184        H  0.13207879  0.22016811  0.54698293     0.13200
H185        H  0.12681265  0.28561385  0.54688031     0.13200
H186        H  0.10160836  0.21477937  0.69240451     0.13200
H187        H  0.10107515  0.28032596  0.69308245     0.13200
H188        H  0.12226239  0.22275286  0.62001966     0.26500
H189        H  0.11903251  0.27862281  0.62037708     0.26500
C190        C  0.44683930  0.08576379  0.29443384     0.42800
N191        N  0.47974094  0.06760276  0.27197267     0.01600
C192        C  0.46860698  0.42681025  0.21386226    -0.06200
H193        H  0.49417009  0.39453803  0.28409980     0.07100
C194        C  0.10569308  0.46145598  0.28470751    -0.06600
Co195      Co  0.45305976  0.50392018  0.25317434     0.74200
N196        N  0.48247408  0.44232733  0.27108251    -0.25800
Co197      Co  0.02161791  0.44898340  0.24846908     0.74100
C198        C  0.09514203  0.42740144  0.29054837     0.42900
N199        N  0.08056793  0.04993029  0.27175284     0.01300
N200        N  0.06007157  0.44782504  0.26919089     0.01400
N201        N  0.42717577  0.46394995  0.21940264    -0.46600
H202        H  0.41228403  0.03972155  0.29185902     0.07100
N203        N  0.45785309  0.46406971  0.27369535     0.01700
N204        N  0.05906259  0.45435127  0.22654079     0.01400
C205        C  0.09555097  0.44683407  0.20349461     0.43000
N206        N  0.05679816  0.07308553  0.27081546    -0.25200
C207        C  0.42468140  0.04761793  0.21906606    -0.06100
N208        N  0.47438108  0.09283783  0.28375592    -0.46300
N209        N  0.06735077  0.43394025  0.21204887    -0.46500
C210        C  0.43423831  0.07633063  0.20746575     0.42800
N211        N  0.45329782  0.46871534  0.23118895     0.01600
N212        N  0.05403432  0.07297761  0.22815934    -0.25200
N213        N  0.45770867  0.04321852  0.27431983    -0.25700
N214        N  0.07775680  0.04988528  0.22911383     0.01300
H215        H  0.05215574  0.12016028  0.21238234     0.07200
H216        H  0.12727881  0.49121473  0.21345895     0.07200
N217        N  0.47834705  0.44761670  0.22831858    -0.25800
N218        N  0.08210980  0.47205546  0.27144511    -0.25400
N219        N  0.47254952  0.06739429  0.22925692     0.01600
C220        C  0.44837616  0.42409974  0.29436932     0.43000
C221        C  0.06476083  0.09753165  0.28308421    -0.06600
N222        N  0.08130662  0.47847881  0.22855225    -0.25400
H223        H  0.12805795  0.47519265  0.28871366     0.07200
N224        N  0.43595476  0.45345851  0.28721483    -0.46600
H225        H  0.05103266  0.12061681  0.28450775     0.07200
C226        C  0.09629401  0.08375912  0.20723553     0.42900
C227        C  0.43533066  0.05270045  0.28815410    -0.06100
Co228      Co  0.01720547  0.07316380  0.25036388     0.73800
N229        N  0.10574312  0.05819030  0.28394713    -0.46300
C230        C  0.43422235  0.43795559  0.20798638     0.43100
N231        N  0.46391672  0.08807330  0.21457577    -0.46300
Co232      Co  0.07970937  0.51250891  0.25124734     0.73900
C233        C  0.10490678  0.47592947  0.21466747    -0.06600
C234        C  0.47889690  0.41685860  0.28370491    -0.06200
N235        N  0.44981906  0.04377022  0.23205714    -0.25700
N236        N  0.06674358  0.42142324  0.28023510    -0.46500
H237        H  0.48315598  0.40586574  0.20893388     0.07100
C238        C  0.06378913  0.09606812  0.21468832    -0.06600
Cl239      Cl  0.01782746  0.50932918  0.25128104    -0.49600
C240        C  0.09682585  0.08771590  0.29185425     0.42900
H241        H  0.40261195  0.03195358  0.21777884     0.07100
N242        N  0.10267158  0.05508207  0.21676283    -0.46300
C243        C  0.43906026  0.30758551  0.96046784     0.42800
N244        N  0.48142847  0.29502366  0.97914254     0.01600
C245        C  0.06764684  0.14180224  0.97005080    -0.06200
H246        H  0.44098385  0.13453808  0.98179057     0.07100
C247        C  0.44811533  0.19565261  0.04628639    -0.06600
Co248      Co  0.00553700  0.22515070  0.96394957     0.74200
N249        N  0.47621993  0.17468577  0.97764264    -0.25800
Co250      Co  0.00942903  0.16089135  0.99870721     0.74100
C251        C  0.42699957  0.17052595  0.03725899     0.42900
N252        N  0.48086917  0.26941343  0.03680333     0.01300
N253        N  0.47337426  0.17433743  0.02140233     0.01400
N254        N  0.06357635  0.18391505  0.94766408    -0.46600
H255        H  0.44896109  0.26357711  0.94016098     0.07100
N256        N  0.47871920  0.19845921  0.96415218     0.01700
N257        N  0.04968478  0.15793642  0.01909124     0.01400
C258        C  0.08898610  0.14087138  0.03879693     0.43000
N259        N  0.48158563  0.29362702  0.02352078    -0.25200
C260        C  0.06779188  0.26457252  0.94953185    -0.06100
N261        N  0.45629483  0.31678737  0.97682059    -0.46300
N262        N  0.07058448  0.13256432  0.02264603    -0.46500
C263        C  0.08804535  0.29216224  0.95661082     0.42800
N264        N  0.04072243  0.18677117  0.96166856     0.01600
N265        N  0.05501673  0.27923408  0.02107859    -0.25200
N266        N  0.48150722  0.27220641  0.96530067    -0.25700
N267        N  0.05594458  0.25446567  0.03399179     0.01300
H268        H  0.08806460  0.32109400  0.01619234     0.07200
H269        H  0.08433507  0.18692657  0.05791899     0.07200
N270        N  0.04253934  0.16248609  0.97496211    -0.25800
N271        N  0.47585409  0.19669682  0.03534222    -0.25400
N272        N  0.04772318  0.28255803  0.97699695     0.01600
C273        C  0.43623243  0.16965662  0.95459474     0.43000
C274        C  0.45795219  0.31622701  0.02822174    -0.06600
N275        N  0.05329230  0.18166927  0.03213340    -0.25400
H276        H  0.44320491  0.21100335  0.05883771     0.07200
N277        N  0.45524282  0.19648899  0.95021834    -0.46600
H278        H  0.45346337  0.33953465  0.02048330     0.07200
C279        C  0.10085120  0.28240085  0.04087894     0.42900
C280        C  0.45568718  0.27824913  0.95282382    -0.06100
Co281      Co  0.01430528  0.28344011  0.00096625     0.73800
N282        N  0.45785391  0.27403341  0.05048848    -0.46300
C283        C  0.08125487  0.15599999  0.95186409     0.43100
N284        N  0.07415024  0.30209788  0.97373664    -0.46300
Co285      Co  0.01817340  0.21901826  0.03537731     0.73900
C286        C  0.07820453  0.17368073  0.04464057    -0.06600
C287        C  0.44980819  0.15529757  0.97300292    -0.06200
N288        N  0.04374665  0.26031806  0.96306379    -0.25700
N289        N  0.44428924  0.15805505  0.02194230    -0.46500
H290        H  0.07592724  0.12018539  0.97845646     0.07100
C291        C  0.08234464  0.29844699  0.02425802    -0.06600
Cl292      Cl  0.01184704  0.22217964  0.99973217    -0.49600
C293        C  0.44241332  0.30316334  0.04638133     0.42900
H294        H  0.07060664  0.25015754  0.93632102     0.07100
N295        N  0.08244050  0.25557886  0.04595818    -0.46300
N296        N  0.21007043  0.36878594  0.87961454    -0.36300
N297        N  0.26079158  0.38638641  0.85108082    -0.56900
N298        N  0.31271150  0.36833317  0.88021287    -0.36300
N299        N  0.26228926  0.34852395  0.90811206    -0.56900
C300        C  0.19072896  0.37379538  0.86327058     0.27300
C301        C  0.19168314  0.35031434  0.89242977     0.27300
C302        C  0.33034274  0.36788258  0.86318851     0.27300
C303        C  0.33114088  0.35142227  0.89404459     0.27300
C304        C  0.23371167  0.40076702  0.84204385     0.35900
C305        C  0.28861294  0.39754889  0.84162734     0.35900
C306        C  0.23451569  0.34588714  0.91941959     0.35900
C307        C  0.28907074  0.34992636  0.92058562     0.35900
C308        C  0.15963019  0.35853428  0.86574454    -0.21600
C309        C  0.16016938  0.34383358  0.88417345    -0.21600
C310        C  0.36005574  0.35001423  0.86620581    -0.21600
C311        C  0.36059492  0.33974195  0.88568393    -0.21600
C312        C  0.24433511  0.42110162  0.82663236    -0.22700
C313        C  0.27916136  0.41919365  0.82642924    -0.22600
C314        C  0.24355532  0.34538085  0.93920736    -0.22700
C315        C  0.27814595  0.34865931  0.93996665    -0.22600
C316        C  0.19959584  0.39371745  0.84677642    -0.18000
C317        C  0.20149405  0.34150106  0.91195208    -0.18000
C318        C  0.32308036  0.34881981  0.91436599    -0.18000
C319        C  0.32194407  0.38599386  0.84565587    -0.18000
H320        H  0.13849262  0.35855735  0.85548766     0.14900
H321        H  0.13941943  0.33041734  0.89086106     0.14900
H322        H  0.37972545  0.34548869  0.85557633     0.14900
H323        H  0.38063195  0.32573046  0.89295344     0.14900
H324        H  0.22864010  0.43543331  0.81646384     0.13200
H325        H  0.29557279  0.43185583  0.81608489     0.13200
H326        H  0.22697858  0.34293842  0.95175932     0.13200
H327        H  0.29343167  0.34915199  0.95327346     0.13200
H328        H  0.23281070  0.38059779  0.88271463     0.26500
H329        H  0.29167741  0.38310263  0.88295714     0.26500
N330        N  0.20915245  0.13797650  0.86924851    -0.36300
N331        N  0.25799221  0.13291407  0.83776300    -0.56900
N332        N  0.31050571  0.13445027  0.86818282    -0.36300
N333        N  0.26076395  0.14171694  0.89910998    -0.56900
C334        C  0.18957722  0.14316578  0.85304642     0.27300
C335        C  0.19125002  0.14809420  0.88495992     0.27300
C336        C  0.32883928  0.13729438  0.85148873     0.27300
C337        C  0.33047726  0.14438108  0.88330114     0.27300
C338        C  0.22970478  0.12358437  0.82798634     0.35900
C339        C  0.28444125  0.12156141  0.82731690     0.35900
C340        C  0.23401203  0.13677317  0.91104159     0.35900
C341        C  0.28880365  0.13780074  0.91037909     0.35900
C342        C  0.15911671  0.15725935  0.85843703    -0.21600
C343        C  0.16037739  0.16088841  0.87856489    -0.21600
C344        C  0.36088657  0.14894100  0.85602206    -0.21600
C345        C  0.36187902  0.15360199  0.87607009    -0.21600
C346        C  0.23820148  0.10712773  0.81091913    -0.22700
C347        C  0.27298661  0.10587368  0.81048489    -0.22600
C348        C  0.24515347  0.12963131  0.93010574    -0.22700
C349        C  0.27996243  0.13079218  0.92973366    -0.22600
C350        C  0.19643519  0.13036933  0.83425839    -0.18000
C351        C  0.19995569  0.14110381  0.90491062    -0.18000
C352        C  0.32199527  0.14314861  0.90357867    -0.18000
C353        C  0.31870559  0.12596211  0.83271292    -0.18000
H354        H  0.13761315  0.16289753  0.84898027     0.14900
H355        H  0.14005867  0.17006280  0.88758936     0.14900
H356        H  0.38160285  0.15305665  0.84595337     0.14900
H357        H  0.38356383  0.16210117  0.88442160     0.14900
H358        H  0.22113887  0.09705009  0.79997863     0.13200
H359        H  0.28810204  0.09459476  0.79915832     0.13200
H360        H  0.22992979  0.12476352  0.94300686     0.13200
H361        H  0.29681842  0.12704208  0.94224414     0.13200
H362        H  0.23049128  0.12286000  0.86988200     0.26500
H363        H  0.28745309  0.12232366  0.86943486     0.26500
C364        C  0.44262196  0.41377050  0.70529971     0.42800
N365        N  0.44706759  0.45769088  0.72252923     0.01600
C366        C  0.09476163  0.06052024  0.72271029    -0.06200
H367        H  0.11554792  0.43104286  0.73336939     0.07100
C368        C  0.05699368  0.44756360  0.79940722    -0.06600
Co369      Co  0.01171165  0.49647924  0.70968679     0.74200
N370        N  0.07246316  0.46158478  0.72634217    -0.25800
Co371      Co  0.07109349  0.49971245  0.74714566     0.74100
C372        C  0.09004962  0.43402225  0.79379384     0.42900
N373        N  0.46695575  0.45911555  0.78103525     0.01300
N374        N  0.07052254  0.46582089  0.77047326     0.01400
N375        N  0.05533688  0.06045982  0.69855155    -0.46600
H376        H  0.48696444  0.42888066  0.68556933     0.07100
N377        N  0.04984429  0.46104383  0.71196990     0.01700
N378        N  0.07011386  0.03595696  0.76931325     0.01400
C379        C  0.08577683  0.07382682  0.78953432     0.43000
N380        N  0.44428367  0.45797509  0.76662171    -0.25200
C381        C  0.47021477  0.06104774  0.69475521    -0.06100
N382        N  0.42840650  0.43059744  0.72023218    -0.46300
N383        N  0.09445960  0.05750035  0.77311866    -0.46500
C384        C  0.44134798  0.08007807  0.70141418     0.42800
N385        N  0.05033700  0.03602058  0.71140899     0.01600
N386        N  0.44377445  0.03917259  0.76357309    -0.25200
N387        N  0.47171092  0.45983961  0.70960704    -0.25700
N388        N  0.46578137  0.04038699  0.77826637     0.01300
H389        H  0.39617345  0.06362761  0.75812002     0.07200
H390        H  0.03913964  0.06433356  0.80904523     0.07200
N391        N  0.07305178  0.03547629  0.72567192    -0.25800
N392        N  0.04684569  0.46680718  0.78405351    -0.25400
N393        N  0.44729229  0.03666696  0.71998365     0.01600
C394        C  0.08306144  0.42015122  0.70546482     0.43000
C395        C  0.42034775  0.43601833  0.77171018    -0.06600
N396        N  0.04546407  0.03665864  0.78233344    -0.25400
H397        H  0.04481006  0.44639298  0.81362236     0.07200
N398        N  0.05523432  0.43700849  0.69934512    -0.46600
H399        H  0.39639898  0.43349295  0.76405629     0.07200
C400        C  0.42818888  0.07723359  0.78513567     0.42900
C401        C  0.47052242  0.43350484  0.69788287    -0.06100
Co402      Co  0.44237250  0.49408796  0.74406492     0.72600
N403        N  0.45914680  0.43920740  0.79604135    -0.46300
C404        C  0.08291041  0.07760385  0.70453205     0.43100
N405        N  0.42779451  0.06325026  0.71688499    -0.46300
Co406      Co  0.00705450  0.50157048  0.78207131     0.73900
C407        C  0.05309660  0.05989362  0.79570134    -0.06600
C408        C  0.09448627  0.43651783  0.72367365    -0.06200
N409        N  0.47228162  0.03504492  0.70726532    -0.25700
N410        N  0.09654003  0.44693086  0.77576994    -0.46500
H411        H  0.11599684  0.06486959  0.73231686     0.07100
C412        C  0.41959324  0.06183287  0.76643865    -0.06600
Cl413      Cl  0.00935625  0.49881426  0.74582897    -0.49600
C414        C  0.42968451  0.42396660  0.79156851     0.42900
H415        H  0.48712168  0.06624548  0.68265314     0.07100
N416        N  0.45713161  0.06250972  0.79160596    -0.46300
N417        N  0.26733375  0.10891859  0.15034079    -0.36300
N418        N  0.31273834  0.11644540  0.11726626    -0.56900
N419        N  0.25771066  0.10838679  0.08903133    -0.36300
N420        N  0.21441892  0.09413287  0.12149076    -0.56900
C421        C  0.29709257  0.09927187  0.15873362     0.27300
C422        C  0.24218287  0.09756196  0.16207305     0.27300
C423        C  0.27916615  0.12725913  0.07828079     0.27300
C424        C  0.22672305  0.11155266  0.08056412     0.27300
C425        C  0.33619362  0.11585844  0.13185761     0.35900
C426        C  0.32947749  0.12393028  0.10053185     0.35900
C427        C  0.19859936  0.08561738  0.13834451     0.35900
C428        C  0.19529687  0.08221321  0.10658679     0.35900
C429        C  0.29079345  0.08096173  0.17576993    -0.21600
C430        C  0.25620864  0.07907189  0.17756787    -0.21600
C431        C  0.26191888  0.14200511  0.06256521    -0.21600
C432        C  0.22861897  0.13277503  0.06428655    -0.21600
C433        C  0.36791219  0.12299083  0.12437853    -0.22700
C434        C  0.36373123  0.12776154  0.10450664    -0.22600
C435        C  0.17059499  0.06623274  0.13433876    -0.22700
C436        C  0.16869772  0.06369792  0.11414997    -0.22600
C437        C  0.32983558  0.10679403  0.15162364    -0.18000
C438        C  0.20736109  0.09853967  0.15689322    -0.18000
C439        C  0.19730111  0.09469747  0.08698964    -0.18000
C440        C  0.31398929  0.13106349  0.08212006    -0.18000
H441        H  0.30920151  0.06877638  0.18534620     0.14900
H442        H  0.24329939  0.06317187  0.18805290     0.14900
H443        H  0.27211410  0.15832900  0.05127184     0.14900
H444        H  0.20822871  0.14096460  0.05463877     0.14900
H445        H  0.39166391  0.12458386  0.13235753     0.13200
H446        H  0.38355218  0.13439920  0.09427696     0.13200
H447        H  0.15263021  0.05633910  0.14482139     0.13200
H448        H  0.14846132  0.05204167  0.10594873     0.13200
H449        H  0.26392303  0.12418503  0.13791532     0.26500
H450        H  0.26439823  0.09190914  0.10042367     0.26500
N451        N  0.26666097  0.35205933  0.09470268    -0.36300
N452        N  0.31632418  0.37567916  0.12305548    -0.56900
N453        N  0.26276246  0.39028213  0.15087208    -0.36300
N454        N  0.21298471  0.36408299  0.12328469    -0.56900
C455        C  0.29568717  0.34095044  0.08662051     0.27300
C456        C  0.24089397  0.33487708  0.08651157     0.27300
C457        C  0.29019901  0.39536334  0.16258919     0.27300
C458        C  0.23484844  0.39192827  0.16226625     0.27300
C459        C  0.33624907  0.37284524  0.10709214     0.35900
C460        C  0.33472315  0.39193337  0.13671220     0.35900
C461        C  0.19383738  0.35485006  0.10763814     0.35900
C462        C  0.19147044  0.37647873  0.13678452     0.35900
C463        C  0.28824146  0.31658792  0.07302559    -0.21600
C464        C  0.25363274  0.31303772  0.07278256    -0.21600
C465        C  0.27953316  0.40038583  0.18174226    -0.21600
C466        C  0.24466903  0.39896291  0.18144894    -0.21600
C467        C  0.36736172  0.38752045  0.11056547    -0.22700
C468        C  0.36646894  0.39946570  0.12935435    -0.22600
C469        C  0.15996886  0.36054750  0.11144376    -0.22700
C470        C  0.15847598  0.37433729  0.12980106    -0.22600
C471        C  0.32849660  0.35339223  0.09052193    -0.18000
C472        C  0.20610442  0.33946517  0.09042945    -0.18000
C473        C  0.20075897  0.38885263  0.15561005    -0.18000
C474        C  0.32424760  0.39829959  0.15617849    -0.18000
H475        H  0.30586415  0.30317741  0.06396059     0.14900
H476        H  0.23949751  0.29623849  0.06353834     0.14900
H477        H  0.29516694  0.40584841  0.19446763     0.14900
H478        H  0.22843098  0.40290270  0.19395997     0.14900
H479        H  0.38881965  0.38862993  0.10077769     0.13200
H480        H  0.38703425  0.41193126  0.13681826     0.13200
H481        H  0.13850366  0.35520596  0.10200368     0.13200
H482        H  0.13558769  0.38162842  0.13723164     0.13200
H483        H  0.26421679  0.37257597  0.10370129     0.26500
H484        H  0.26274072  0.38937690  0.13561878     0.26500
C485        C  0.15421138  0.08670680  0.82849169    -0.05500
C486        C  0.16721352  0.11761710  0.82264354     0.00400
C487        C  0.15216809  0.13521317  0.80661889    -0.08100
C488        C  0.12501971  0.12030795  0.79637932    -0.05500
C489        C  0.11189358  0.08926385  0.80228256     0.00400
C490        C  0.12672073  0.07211242  0.81864574    -0.08000
C491        C  0.11414096  0.03837131  0.82566046     0.62300
H492        H  0.16595979  0.07408359  0.84102458     0.13000
H493        H  0.11371761  0.13284194  0.78368425     0.13000
C494        C  0.16423878  0.16975071  0.80082294     0.62600
F495        F  0.13513664  0.02458512  0.84003351    -0.22600
F496        F  0.11277077  0.01659403  0.81010454    -0.19900
F497        F  0.08236166  0.04167817  0.83368905    -0.19600
F498        F  0.19819140  0.16899654  0.79618905    -0.19600
F499        F  0.15958677  0.19104659  0.81637127    -0.20000
F500        F  0.14662697  0.18241031  0.78463622    -0.22600
C501        C  0.36007613  0.08292912  0.82413431    -0.05500
C502        C  0.34586513  0.11400217  0.81950426     0.00400
C503        C  0.35936966  0.13347215  0.80390572    -0.08100
C504        C  0.38731022  0.12105985  0.79354032    -0.05500
C505        C  0.40173197  0.09003905  0.79831174     0.00400
C506        C  0.38772634  0.07038861  0.81373528    -0.08000
C507        C  0.40173561  0.03636463  0.81927666     0.62300
H508        H  0.34939512  0.06869517  0.83625203     0.13000
H509        H  0.39775899  0.13520852  0.78131959     0.13000
C510        C  0.34384954  0.16666462  0.79796573     0.62600
F511        F  0.38213258  0.02031067  0.83329763    -0.22600
F512        F  0.43396117  0.03987225  0.82702220    -0.19900
F513        F  0.40275943  0.01646439  0.80284573    -0.19600
F514        F  0.34224251  0.18718452  0.81409235    -0.19600
F515        F  0.31157076  0.16169259  0.79062861    -0.20000
F516        F  0.36249623  0.18272909  0.78350490    -0.22600
C517        C  0.16797386  0.38966979  0.81500456    -0.05500
C518        C  0.17177941  0.40530777  0.83322373     0.00400
C519        C  0.14837993  0.43024572  0.83863082    -0.08100
C520        C  0.12135422  0.43809726  0.82567660    -0.05500
C521        C  0.11769061  0.42269336  0.80733817     0.00400
C522        C  0.14154467  0.39823789  0.80179134    -0.08000
C523        C  0.13906622  0.38108331  0.78204365     0.62300
H524        H  0.18612065  0.37068961  0.81120210     0.13000
H525        H  0.10320648  0.45692601  0.82966213     0.13000
C526        C  0.15225607  0.44890574  0.85783639     0.62600
F527        F  0.16195088  0.35516736  0.78072057    -0.22600
F528        F  0.14587944  0.40360944  0.76702335    -0.19900
F529        F  0.10692765  0.36828965  0.77940721    -0.19600
F530        F  0.13054173  0.47584698  0.85861190    -0.19600
F531        F  0.18497653  0.46059976  0.85972166    -0.20000
F532        F  0.14513666  0.42812664  0.87365186    -0.22600
C533        C  0.37801979  0.41120068  0.83873940    -0.05500
C534        C  0.34992049  0.39374814  0.83147461     0.00400
C535        C  0.35004825  0.38338403  0.81156344    -0.08100
C536        C  0.37636412  0.39424574  0.79921460    -0.05500
C537        C  0.40442958  0.41197407  0.80638853     0.00400
C538        C  0.40626859  0.41869054  0.82695788    -0.08000
C539        C  0.43786143  0.43226318  0.83693488     0.62300
H540        H  0.37795340  0.41815150  0.85410759     0.13000
H541        H  0.37545352  0.38773338  0.78376868     0.13000
C542        C  0.32357856  0.36060457  0.80269417     0.62600
F543        F  0.43404518  0.43483161  0.85714041    -0.22600
F544        F  0.44543012  0.46350028  0.82969300    -0.19900
F545        F  0.46476240  0.41110074  0.83369526    -0.19600
F546        F  0.30112002  0.37919219  0.79131323    -0.19600
F547        F  0.30590332  0.34295621  0.81687377    -0.20000
F548        F  0.33904025  0.33763956  0.79073434    -0.22600
C549        C  0.13690887  0.10155493  0.04262272    -0.05500
C550        C  0.10991280  0.11836024  0.05128557     0.00400
C551        C  0.10815758  0.11935539  0.07212864    -0.08100
C552        C  0.13702008  0.11106298  0.08316169    -0.05500
C553        C  0.16568213  0.09687299  0.07454489     0.00400
C554        C  0.16421603  0.08918909  0.05410430    -0.08000
C555        C  0.19095014  0.06928500  0.04357627     0.62300
H556        H  0.13754120  0.09944847  0.02670199     0.13000
H557        H  0.13724036  0.11655433  0.09871933     0.13000
C558        C  0.07671479  0.12864755  0.08354744     0.62600
F559        F  0.17550455  0.04369573  0.03355636    -0.22600
F560        F  0.21462112  0.05533027  0.05635230    -0.19900
F561        F  0.20732578  0.08953623  0.03005188    -0.19600
F562        F  0.04837423  0.13256174  0.07164186    -0.19600
F563        F  0.08246897  0.15769631  0.09366959    -0.20000
F564        F  0.06969824  0.10354753  0.09707515    -0.22600
C565        C  0.37469007  0.18557392  0.05416412    -0.05500
C566        C  0.39273539  0.16131788  0.04387129     0.00400
C567        C  0.37956973  0.12871831  0.04257533    -0.08100
C568        C  0.35116493  0.12052825  0.05397419    -0.05500
C569        C  0.33605342  0.14388801  0.06626089     0.00400
C570        C  0.34672065  0.17734328  0.06572561    -0.08000
C571        C  0.33020197  0.20372055  0.07828438     0.62300
H572        H  0.38397940  0.21084032  0.05414748     0.13000
H573        H  0.34198161  0.09520176  0.05452497     0.13000
C574        C  0.39595112  0.10243517  0.02998603     0.62600
F575        F  0.33603093  0.19685683  0.09806250    -0.22600
F576        F  0.29575604  0.20444539  0.07476653    -0.19900
F577        F  0.34277558  0.23512087  0.07413216    -0.19600
F578        F  0.42881746  0.09662326  0.03631294    -0.19600
F579        F  0.39593537  0.11313261  0.01049266    -0.20000
F580        F  0.37871045  0.07257368  0.03093012    -0.22600
C581        C  0.14104806  0.32806519  0.04910287    -0.05500
C582        C  0.12987442  0.29538751  0.05289198     0.00400
C583        C  0.14634421  0.27641111  0.06823266    -0.08100
C584        C  0.17102478  0.29189403  0.07999802    -0.05500
C585        C  0.18091187  0.32474143  0.07658233     0.00400
C586        C  0.16662844  0.34293605  0.06056891    -0.08000
C587        C  0.17847175  0.37793644  0.05575395     0.62300
H588        H  0.12934278  0.34227478  0.03722512     0.13000
H589        H  0.18292017  0.27850250  0.09219405     0.13000
C590        C  0.13890095  0.23988896  0.07232114     0.62600
F591        F  0.16179166  0.39131738  0.03942841    -0.22600
F592        F  0.21272036  0.37756255  0.05181130    -0.19900
F593        F  0.17265660  0.39833600  0.07158349    -0.19600
F594        F  0.14177672  0.22220046  0.05508609    -0.19600
F595        F  0.10677624  0.23634630  0.07993044    -0.20000
F596        F  0.16132493  0.22596713  0.08593769    -0.22600
C597        C  0.39273869  0.34098717  0.04941942    -0.05500
C598        C  0.41458543  0.31738405  0.05834639     0.00400
C599        C  0.40897696  0.30764325  0.07836838    -0.08100
C600        C  0.37976537  0.31895888  0.08774681    -0.05500
C601        C  0.35749258  0.34152162  0.07859476     0.00400
C602        C  0.36461750  0.35390027  0.05945024    -0.08000
C603        C  0.34318372  0.38124966  0.05002104     0.62300
H604        H  0.39761469  0.34913894  0.03443165     0.13000
H605        H  0.37418043  0.31057837  0.10263500     0.13000
C606        C  0.43336607  0.28586121  0.09030840     0.62600
F607        F  0.35572230  0.39137852  0.03190908    -0.22600
F608        F  0.34271790  0.40849122  0.06220143    -0.19900
F609        F  0.31047421  0.37026384  0.04715121    -0.19600
F610        F  0.46643982  0.29559752  0.08715198    -0.19600
F611        F  0.42920724  0.25308358  0.08510543    -0.20000
F612        F  0.42767191  0.28812214  0.11038039    -0.22600
C613        C  0.13921618  0.28288299  0.93660089    -0.05500
C614        C  0.11932346  0.30525768  0.94730631     0.00400
C615        C  0.12842596  0.33934548  0.94753316    -0.08100
C616        C  0.15638857  0.34992731  0.93640539    -0.05500
C617        C  0.17525985  0.32769300  0.92525894     0.00400
C618        C  0.16725218  0.29350621  0.92560177    -0.08000
C619        C  0.18799768  0.26859995  0.91414235     0.62300
H620        H  0.13232776  0.25690504  0.93659817     0.13000
H621        H  0.16331641  0.37593460  0.93581219     0.13000
C622        C  0.10792182  0.36482815  0.95855526     0.62600
F623        F  0.17656865  0.23641383  0.91695103    -0.22600
F624        F  0.22141402  0.26981725  0.92027232    -0.19900
F625        F  0.18623333  0.27593549  0.89417141    -0.19600
F626        F  0.10948310  0.35794420  0.97858754    -0.19600
F627        F  0.07463269  0.36409197  0.95213466    -0.20000
F628        F  0.11996194  0.39675613  0.95552573    -0.22600
C629        C  0.40871413  0.35139931  0.94105942    -0.05500
C630        C  0.40721483  0.32235376  0.95269091     0.00400
C631        C  0.37610708  0.30547084  0.95452726    -0.08100
C632        C  0.34916946  0.31453297  0.94180219    -0.05500
C633        C  0.35106048  0.34258319  0.92917262     0.00400
C634        C  0.38035086  0.36299659  0.93021676    -0.08000
C635        C  0.38295064  0.39689115  0.92017444     0.62300
H636        H  0.43226386  0.36509807  0.94037661     0.13000
H637        H  0.32646689  0.29956628  0.94159615     0.13000
C638        C  0.37107467  0.27936851  0.97063063     0.62600
F639        F  0.39660311  0.41937052  0.93324670    -0.22600
F640        F  0.35188722  0.40934556  0.91409403    -0.19900
F641        F  0.40390830  0.39482120  0.90403006    -0.19600
F642        F  0.37815517  0.29324825  0.98874795    -0.19600
F643        F  0.39238566  0.25267705  0.96801247    -0.20000
F644        F  0.33813045  0.26780562  0.97095650    -0.22600
C645        C  0.17190790  0.16202370  0.93513882    -0.05500
C646        C  0.17193300  0.13932569  0.91957110     0.00400
C647        C  0.14341098  0.11820420  0.91696667    -0.08100
C648        C  0.11420726  0.12418890  0.92798794    -0.05500
C649        C  0.11375777  0.14815314  0.94265541     0.00400
C650        C  0.14360772  0.16560495  0.94736417    -0.08000
C651        C  0.14559132  0.18692369  0.96558651     0.62300
H652        H  0.19393740  0.17747962  0.93739794     0.13000
H653        H  0.09146953  0.10997745  0.92509009     0.13000
C654        C  0.14206997  0.08926499  0.90284600     0.62600
F655        F  0.17749993  0.20029434  0.96819519    -0.22600
F656        F  0.13829378  0.16754939  0.98204033    -0.19900
F657        F  0.12256981  0.21270000  0.96421690    -0.19600
F658        F  0.13261877  0.06088119  0.91314475    -0.19600
F659        F  0.17272070  0.08269690  0.89409230    -0.20000
F660        F  0.11819609  0.09575396  0.88823596    -0.22600
C661        C  0.38426813  0.18693245  0.93716240    -0.05500
C662        C  0.40553199  0.16070957  0.94322345     0.00400
C663        C  0.39898688  0.12816721  0.93644744    -0.08100
C664        C  0.37054119  0.12307274  0.92416067    -0.05500
C665        C  0.34929859  0.14946035  0.91827916     0.00400
C666        C  0.35615637  0.18193873  0.92481238    -0.08000
C667        C  0.33425075  0.21130410  0.91841670     0.62300
H668        H  0.39033448  0.21172648  0.94186835     0.13000
H669        H  0.36507949  0.09858382  0.91858220     0.13000
C670        C  0.42292615  0.09946337  0.94100272     0.62600
F671        F  0.30177460  0.20691578  0.92533833    -0.22600
F672        F  0.33326506  0.21405765  0.89806789    -0.19900
F673        F  0.34650612  0.24092569  0.92564922    -0.19600
F674        F  0.42129248  0.09088349  0.96077059    -0.19600
F675        F  0.45570750  0.10841281  0.93635662    -0.20000
F676        F  0.41481057  0.07159754  0.93024763    -0.22600
C677        C  0.37199405  0.38369797  0.17902410    -0.05500
C678        C  0.35119568  0.40846617  0.17044040     0.00400
C679        C  0.35872218  0.44222336  0.17364660    -0.08100
C680        C  0.38737111  0.45003914  0.18501041    -0.05500
C681        C  0.40840379  0.42553473  0.19373095     0.00400
C682        C  0.40018406  0.39158254  0.19105215    -0.08000
C683        C  0.41978216  0.36382671  0.20135777     0.62300
H684        H  0.36590729  0.35800349  0.17613301     0.13000
H685        H  0.39310192  0.47583236  0.18764455     0.13000
C686        C  0.33654133  0.46992630  0.16516241     0.62600
F687        F  0.40411580  0.33336541  0.19913007    -0.22600
F688        F  0.42216117  0.36985564  0.22135347    -0.19900
F689        F  0.45178505  0.36164557  0.19348401    -0.19600
F690        F  0.30406918  0.46678451  0.17228117    -0.19600
F691        F  0.33566382  0.46836988  0.14481203    -0.20000
F692        F  0.34829881  0.50103832  0.17026779    -0.22600
C693        C  0.12932431  0.39758644  0.19337667    -0.05500
C694        C  0.11850840  0.43030852  0.18935128     0.00400
C695        C  0.13400516  0.44849167  0.17373744    -0.08100
C696        C  0.16172661  0.43451504  0.16401441    -0.05500
C697        C  0.17303446  0.40215800  0.16824292     0.00400
C698        C  0.15603183  0.38288178  0.18277787    -0.08000
C699        C  0.16607545  0.34707961  0.18706420     0.62300
H700        H  0.11743418  0.38399032  0.20534258     0.13000
H701        H  0.17411991  0.44868217  0.15242266     0.13000
C702        C  0.12190539  0.48241568  0.16647291     0.62600
F703        F  0.14516006  0.33230242  0.20090479    -0.22600
F704        F  0.19882475  0.34561577  0.19428295    -0.19900
F705        F  0.16400086  0.32894187  0.16995342    -0.19600
F706        F  0.14418274  0.50648841  0.17284243    -0.19600
F707        F  0.08977863  0.48997965  0.17292408    -0.20000
F708        F  0.12088202  0.48318264  0.14604058    -0.22600
C709        C  0.39306715  0.11644335  0.19392043    -0.05500
C710        C  0.41422564  0.08920629  0.19079400     0.00400
C711        C  0.41037431  0.07011549  0.17365040    -0.08100
C712        C  0.38216444  0.07606738  0.16138958    -0.05500
C713        C  0.35951976  0.10213111  0.16511389     0.00400
C714        C  0.36640547  0.12415351  0.18075773    -0.08000
C715        C  0.34676554  0.15627127  0.18297186     0.62300
H716        H  0.39701899  0.13102389  0.20703366     0.13000
H717        H  0.37758498  0.06049498  0.14875857     0.13000
C718        C  0.43665950  0.04432050  0.16824851     0.62600
F719        F  0.35842623  0.17442476  0.19881021    -0.22600
F720        F  0.31287462  0.14989232  0.18587905    -0.19900
F721        F  0.35041991  0.17551614  0.16604279    -0.19600
F722        F  0.42645880  0.52472155  0.17562676    -0.19600
F723        F  0.46845311  0.05859878  0.16878165    -0.20000
F724        F  0.41800489  0.54743958  0.14559579    -0.22600
C725        C  0.11887770  0.11237020  0.17778542    -0.05500
C726        C  0.12387512  0.10158378  0.19720518     0.00400
C727        C  0.15720078  0.10055523  0.20501063    -0.08100
C728        C  0.18448641  0.10254470  0.19194703    -0.05500
C729        C  0.17942398  0.10647056  0.17143369     0.00400
C730        C  0.14649818  0.11763980  0.16519936    -0.08000
C731        C  0.13894676  0.13674407  0.14619839     0.62300
H732        H  0.09330122  0.11591473  0.17222712     0.13000
H733        H  0.20944945  0.10092539  0.19822178     0.13000
C734        C  0.16476738  0.09532889  0.22685223     0.62600
F735        F  0.12159638  0.16553283  0.15061467    -0.22600
F736        F  0.11860760  0.11782052  0.13410122    -0.19900
F737        F  0.16778778  0.14612895  0.13623245    -0.19600
F738        F  0.17349639  0.06248189  0.23041317    -0.19600
F739        F  0.13733242  0.10345369  0.23837174    -0.20000
F740        F  0.19146052  0.11529889  0.23254611    -0.22600
C741        C  0.07716803  0.11660001  0.67621704    -0.05500
C742        C  0.09597490  0.10723133  0.69320402     0.00400
C743        C  0.12510263  0.12641945  0.69820856    -0.08100
C744        C  0.13474359  0.15276694  0.68548890    -0.05500
C745        C  0.11578165  0.16146942  0.66868040     0.00400
C746        C  0.08589809  0.14387109  0.66422872    -0.08000
C747        C  0.06302106  0.15395633  0.64695729     0.62300
H748        H  0.05506210  0.10237241  0.67218874     0.13000
H749        H  0.15721551  0.16718119  0.68856461     0.13000
C750        C  0.14622288  0.12001645  0.71664015     0.62600
F751        F  0.03234789  0.13743902  0.64747315    -0.22600
F752        F  0.07853956  0.14663054  0.62937127    -0.19900
F753        F  0.05625539  0.18765716  0.64744246    -0.19600
F754        F  0.16127603  0.08907460  0.71566298    -0.19600
F755        F  0.12602602  0.12216175  0.73312409    -0.20000
F756        F  0.17183040  0.14312571  0.71876360    -0.22600
C757        C  0.07103039  0.37344643  0.68344006    -0.05500
C758        C  0.09537437  0.39003894  0.69494120     0.00400
C759        C  0.12961615  0.37898369  0.69432825    -0.08100
C760        C  0.13778722  0.35200912  0.68214517    -0.05500
C761        C  0.11322735  0.33614297  0.67064433     0.00400
C762        C  0.07918640  0.34659305  0.67144631    -0.08000
C763        C  0.05154161  0.32960936  0.65952945     0.62300
H764        H  0.04516440  0.38206111  0.68360187     0.13000
H765        H  0.16363197  0.34329178  0.68117769     0.13000
C766        C  0.15778470  0.39551822  0.70584708     0.62600
F767        F  0.04830144  0.29695083  0.66578686    -0.22600
F768        F  0.05944380  0.33036426  0.63970364    -0.19900
F769        F  0.02043321  0.34491437  0.66163799    -0.19600
F770        F  0.15384134  0.38870983  0.72571564    -0.19600
F771        F  0.15731889  0.42945531  0.70236990    -0.20000
F772        F  0.18935952  0.38391246  0.70053381    -0.22600
C773        C  0.43687091  0.16582400  0.67760413    -0.05500
C774        C  0.40700838  0.16335819  0.66635044     0.00400
C775        C  0.38548728  0.13558652  0.66949003    -0.08100
C776        C  0.39680515  0.10924847  0.68183988    -0.05500
C777        C  0.42787296  0.11074731  0.69184686     0.00400
C778        C  0.44709248  0.14036041  0.69085078    -0.08000
C779        C  0.47716688  0.14562903  0.70450000     0.62300
H780        H  0.45221574  0.18792064  0.67587022     0.13000
H781        H  0.38197036  0.08674521  0.68319149     0.13000
C782        C  0.35082355  0.13345178  0.65988522     0.62600
F783        F  0.48992344  0.17754243  0.70276775    -0.22600
F784        F  0.50275767  0.12364412  0.70028791    -0.19900
F785        F  0.98995986  0.11934332  0.71872371    -0.19600
F786        F  0.35414991  0.12566707  0.64027181    -0.19600
F787        F  0.33389777  0.16339080  0.66146106    -0.20000
F788        F  0.33123348  0.10910869  0.66877839    -0.22600
C789        C  0.43559128  0.33079371  0.68064653    -0.05500
C790        C  0.40642214  0.33560597  0.66890225     0.00400
C791        C  0.38627147  0.36441148  0.67170571    -0.08100
C792        C  0.39839350  0.38922435  0.68426494    -0.05500
C793        C  0.42823520  0.38490674  0.69521010     0.00400
C794        C  0.44602556  0.35450888  0.69442323    -0.08000
C795        C  0.47460015  0.34666214  0.70888021     0.62300
H796        H  0.45015160  0.30822161  0.67893749     0.13000
H797        H  0.38449379  0.41235042  0.68543569     0.13000
C798        C  0.35180080  0.37028559  0.66228429     0.62600
F799        F  0.98508427  0.31792359  0.71109408    -0.22600
F800        F  0.46255504  0.34880678  0.72791498    -0.19900
F801        F  0.00036855  0.37119794  0.70785541    -0.19600
F802        F  0.33965567  0.34316843  0.65223109    -0.19600
F803        F  0.35354830  0.39712853  0.64935412    -0.20000
F804        F  0.32881531  0.37746768  0.67689864    -0.22600
C805        C  0.30724736  0.12345220  0.56915935    -0.05500
C806        C  0.32216825  0.11326047  0.55144356     0.00400
C807        C  0.34942467  0.13252848  0.54370355    -0.08100
C808        C  0.36178100  0.15959068  0.55467247    -0.05500
C809        C  0.34706198  0.16876811  0.57248526     0.00400
C810        C  0.31860966  0.15126310  0.57952360    -0.08000
C811        C  0.29976117  0.16247006  0.59771033     0.62300
H812        H  0.28631717  0.10953815  0.57509802     0.13000
H813        H  0.38319604  0.17388458  0.54948766     0.13000
C814        C  0.36489597  0.12570025  0.52379331     0.62600
F815        F  0.27185085  0.14282120  0.60160307    -0.22600
F816        F  0.28875350  0.19481873  0.59493948    -0.19900
F817        F  0.32069473  0.16099412  0.61404968    -0.19600
F818        F  0.33976120  0.12630575  0.50947520    -0.19600
F819        F  0.38082464  0.09510136  0.52419701    -0.20000
F820        F  0.38871728  0.14936913  0.51857319    -0.22600
C821        C  0.34813457  0.37902647  0.54281837    -0.05500
C822        C  0.33171872  0.40383365  0.55342171     0.00400
C823        C  0.32962749  0.40074711  0.57417631    -0.08100
C824        C  0.33791341  0.37027059  0.58310559    -0.05500
C825        C  0.35415046  0.34496753  0.57271559     0.00400
C826        C  0.36098111  0.35011941  0.55227976    -0.08000
C827        C  0.38234186  0.32635543  0.54041409     0.62300
H828        H  0.35033823  0.38215144  0.52697546     0.13000
H829        H  0.33385629  0.36709220  0.59882958     0.13000
C830        C  0.32166868  0.42943504  0.58768373     0.62600
F831        F  0.36378503  0.29874799  0.53535997    -0.22600
F832        F  0.41059823  0.31656293  0.55117828    -0.19900
F833        F  0.39338481  0.34124509  0.52307717    -0.19600
F834        F  0.28960592  0.42556616  0.59531450    -0.19600
F835        F  0.32392249  0.45999095  0.57817606    -0.20000
F836        F  0.34479084  0.42963535  0.60315453    -0.22600
C837        C  0.18719881  0.13646840  0.54883876    -0.05500
C838        C  0.16076022  0.11397062  0.54567239     0.00400
C839        C  0.12896259  0.11895486  0.55446208    -0.08100
C840        C  0.12495511  0.14630269  0.56680671    -0.05500
C841        C  0.15189709  0.16789769  0.57067902     0.00400
C842        C  0.18342044  0.16347944  0.56139198    -0.08000
C843        C  0.21325620  0.18617196  0.56544084     0.62300
H844        H  0.21143738  0.13169459  0.54209596     0.13000
H845        H  0.10115187  0.15041428  0.57417402     0.13000
C846        C  0.10017313  0.09457325  0.55165027     0.62600
F847        F  0.24225521  0.17568507  0.55604957    -0.22600
F848        F  0.21994607  0.18671239  0.58547200    -0.19900
F849        F  0.20598010  0.21803823  0.55882005    -0.19600
F850        F  0.11039952  0.06297126  0.55741871    -0.19600
F851        F  0.09056600  0.09441363  0.53200081    -0.20000
F852        F  0.07219046  0.10289152  0.56266751    -0.22600
C853        C  0.17644731  0.33756506  0.56130982    -0.05500
C854        C  0.14453036  0.33805522  0.57009678     0.00400
C855        C  0.12016249  0.36179939  0.56382267    -0.08100
C856        C  0.13006721  0.38688658  0.55040817    -0.05500
C857        C  0.16304325  0.38794791  0.54297565     0.00400
C858        C  0.18587721  0.36165480  0.54734081    -0.08000
C859        C  0.21985636  0.35712775  0.53742333     0.62300
H860        H  0.19422821  0.31805965  0.56545147     0.13000
H861        H  0.11273214  0.40683446  0.54648532     0.13000
C862        C  0.08415128  0.36057197  0.57131631     0.62600
F863        F  0.22034880  0.32651151  0.52841837    -0.22600
F864        F  0.24541287  0.35785374  0.55147566    -0.19900
F865        F  0.22641466  0.38101723  0.52310802    -0.19600
F866        F  0.08371491  0.36624290  0.59135552    -0.19600
F867        F  0.07041956  0.32965162  0.56773906    -0.20000
F868        F  0.06386254  0.38424937  0.56204417    -0.22600
C869        C  0.14271767  0.12906274  0.29784551    -0.05500
C870        C  0.11673799  0.10887769  0.30540623     0.00400
C871        C  0.10526060  0.11416477  0.32476352    -0.08100
C872        C  0.11794161  0.14120631  0.33532513    -0.05500
C873        C  0.14230704  0.16302756  0.32745107     0.00400
C874        C  0.15637005  0.15573610  0.30871556    -0.08000
C875        C  0.18525560  0.17498692  0.29937523     0.62300
H876        H  0.15154395  0.12478856  0.28299910     0.13000
H877        H  0.10744086  0.14652314  0.34963931     0.13000
C878        C  0.07805970  0.09240652  0.33383499     0.62600
F879        F  0.21094095  0.15319300  0.29470692    -0.22600
F880        F  0.19887214  0.19872808  0.31158583    -0.19900
F881        F  0.17386447  0.19044789  0.28218854    -0.19600
F882        F  0.07492347  0.09768042  0.35387182    -0.19600
F883        F  0.08591143  0.05925979  0.33128122    -0.20000
F884        F  0.53972928  0.09906266  0.32006554    -0.22600
C885        C  0.15504669  0.36250468  0.31400441    -0.05500
C886        C  0.13140579  0.34113518  0.32294767     0.00400
C887        C  0.09667614  0.34981369  0.32242217    -0.08100
C888        C  0.08682665  0.37895041  0.31228532    -0.05500
C889        C  0.11023251  0.40055650  0.30329473     0.00400
C890        C  0.14518963  0.39271136  0.30463755    -0.08000
C891        C  0.17202895  0.41612162  0.29682673     0.62300
H892        H  0.18156280  0.35599869  0.31531728     0.13000
H893        H  0.06021784  0.38526957  0.31136013     0.13000
C894        C  0.06996572  0.32900861  0.33294261     0.62600
F895        F  0.20417911  0.40274616  0.29883174    -0.22600
F896        F  0.17122414  0.44521180  0.30737972    -0.19900
F897        F  0.16636352  0.42301825  0.27702909    -0.19600
F898        F  0.07744500  0.32661825  0.35286493    -0.19600
F899        F  0.06866089  0.29754080  0.32519563    -0.20000
F900        F  0.53651141  0.34378624  0.33631543    -0.22600
C901        C  0.18581135  0.14754959  0.45002101    -0.05500
C902        C  0.16552922  0.11914699  0.44905354     0.00400
C903        C  0.13449846  0.11996779  0.43858799    -0.08100
C904        C  0.12626360  0.14871150  0.42762619    -0.05500
C905        C  0.14808340  0.17607503  0.42714411     0.00400
C906        C  0.17715402  0.17666046  0.43950162    -0.08000
C907        C  0.19934691  0.20735578  0.44114027     0.62300
H908        H  0.20904453  0.14631924  0.45860169     0.13000
H909        H  0.10402152  0.14921414  0.41817797     0.13000
C910        C  0.11161628  0.08979750  0.43785217     0.62600
F911        F  0.22761234  0.20138659  0.45287897    -0.22600
F912        F  0.18133259  0.23276452  0.44959716    -0.19900
F913        F  0.21010516  0.21769794  0.42269795    -0.19600
F914        F  0.10124072  0.08138233  0.45670091    -0.19600
F915        F  0.12893443  0.06333090  0.42994281    -0.20000
F916        F  0.08302611  0.09568516  0.42638946    -0.22600
C917        C  0.17000781  0.33872503  0.43566183    -0.05500
C918        C  0.14330967  0.34320743  0.42210133     0.00400
C919        C  0.12335729  0.37238093  0.42257122    -0.08100
C920        C  0.13427108  0.39854320  0.43450756    -0.05500
C921        C  0.16304678  0.39511440  0.44655305     0.00400
C922        C  0.17940243  0.36404592  0.44854579    -0.08000
C923        C  0.20530300  0.35741196  0.46480586     0.62300
H924        H  0.18380073  0.31544127  0.43580027     0.13000
H925        H  0.12123326  0.42223596  0.43393084     0.13000
C926        C  0.09079505  0.37565603  0.41069790     0.62600
F927        F  0.21715047  0.32503038  0.46458290    -0.22600
F928        F  0.19039925  0.36260360  0.48288581    -0.19900
F929        F  0.23259062  0.37847445  0.46285878    -0.19600
F930        F  0.07080460  0.34800535  0.41403054    -0.19600
F931        F  0.09770641  0.37831655  0.39080557    -0.20000
F932        F  0.07251872  0.40341866  0.41603881    -0.22600
C933        C  0.39130275  0.15477224  0.31510432    -0.05500
C934        C  0.41262404  0.16679212  0.33005792     0.00400
C935        C  0.44393784  0.15072945  0.33387196    -0.08100
C936        C  0.45299473  0.12330414  0.32242234    -0.05500
C937        C  0.43170233  0.11090453  0.30759989     0.00400
C938        C  0.40031580  0.12702619  0.30369975    -0.08000
C939        C  0.37660383  0.11545449  0.28751026     0.62300
H940        H  0.36720944  0.16706757  0.31268647     0.13000
H941        H  0.47709952  0.11117063  0.32495622     0.13000
C942        C  0.46754602  0.16233342  0.35014567     0.62600
F943        F  0.34972293  0.13716056  0.28462654    -0.22600
F944        F  0.36371364  0.08463963  0.29259231    -0.19900
F945        F  0.39368722  0.11329061  0.26986540    -0.19600
F946        F  0.45249950  0.15731471  0.36826855    -0.19600
F947        F  0.47453746  0.19575041  0.34758061    -0.20000
F948        F  0.49794853  0.14521455  0.35027158    -0.22600
C949        C  0.44763476  0.38979015  0.32456584    -0.05500
C950        C  0.43111712  0.39908795  0.30693522     0.00400
C951        C  0.40365894  0.37976553  0.30002744    -0.08100
C952        C  0.39265656  0.35244003  0.31159425    -0.05500
C953        C  0.40924250  0.34328009  0.32926119     0.00400
C954        C  0.43743485  0.36196100  0.33579930    -0.08000
C955        C  0.45749264  0.35169498  0.35415942     0.62300
H956        H  0.46949650  0.40401437  0.32913413     0.13000
H957        H  0.37130860  0.33768242  0.30684147     0.13000
C958        C  0.38722056  0.38709206  0.28013651     0.62600
F959        F  0.99636516  0.37997058  0.35835446    -0.22600
F960        F  0.46833276  0.31918619  0.35244851    -0.19900
F961        F  0.43771893  0.35425626  0.37075341    -0.19600
F962        F  0.41104527  0.38450303  0.26542032    -0.19600
F963        F  0.37397885  0.41888947  0.27986017    -0.20000
F964        F  0.36126129  0.36513728  0.27607165    -0.22600
C965        C  0.37137630  0.15196605  0.43523987    -0.05500
C966        C  0.34637819  0.16926082  0.42449551     0.00400
C967        C  0.31207635  0.16039427  0.42656970    -0.08100
C968        C  0.30405519  0.13303850  0.43867401    -0.05500
C969        C  0.32899151  0.11482880  0.44912077     0.00400
C970        C  0.36329907  0.12513034  0.44793674    -0.08000
C971        C  0.39138793  0.10847149  0.45983126     0.62300
H972        H  0.39738048  0.15978656  0.43350292     0.13000
H973        H  0.27785883  0.12565640  0.44010878     0.13000
C974        C  0.28399369  0.18017091  0.41642546     0.62600
F975        F  0.42297383  0.12016462  0.45452537    -0.22600
F976        F  0.39112238  0.07454178  0.45701032    -0.19900
F977        F  0.38709348  0.11519860  0.47954562    -0.19600
F978        F  0.29004197  0.18369694  0.39645663    -0.19600
F979        F  0.28223152  0.21128585  0.42469491    -0.20000
F980        F  0.25293376  0.16479692  0.41853029    -0.22600
C981        C  0.36695988  0.35846625  0.43299774    -0.05500
C982        C  0.34156434  0.34223562  0.42229922     0.00400
C983        C  0.30762584  0.35262071  0.42419625    -0.08100
C984        C  0.30057772  0.38050146  0.43580532    -0.05500
C985        C  0.32593267  0.39756165  0.44636723     0.00400
C986        C  0.35985853  0.38574469  0.44522428    -0.08000
C987        C  0.38884413  0.40193763  0.45622009     0.62300
H988        H  0.39265809  0.34959680  0.43148185     0.13000
H989        H  0.27485720  0.38949567  0.43645471     0.13000
C990        C  0.27901897  0.33420477  0.41399676     0.62600
F991        F  0.41987757  0.38897588  0.45093317    -0.22600
F992        F  0.38518800  0.39639138  0.47624121    -0.19900
F993        F  0.38936285  0.43567420  0.45209541    -0.19600
F994        F  0.24771113  0.34748798  0.41835827    -0.19600
F995        F  0.27920405  0.30126519  0.42010057    -0.20000
F996        F  0.28289958  0.33577972  0.39376713    -0.22600
N997        N  0.38389892  0.80832629  0.37618252    -0.36300
N998        N  0.40138559  0.75697812  0.34759017    -0.56900
N999        N  0.37963612  0.70719395  0.37611719    -0.36300
N1000       N  0.36082810  0.75841772  0.40397769    -0.56900
C1001       C  0.38855275  0.82686874  0.35962636     0.27300
C1002       C  0.36752644  0.82761173  0.38924708     0.27300
C1003       C  0.38408695  0.68817647  0.36003286     0.27300
C1004       C  0.36189689  0.68893501  0.38938470     0.27300
C1005       C  0.41483168  0.78391106  0.33832390     0.35900
C1006       C  0.41327060  0.72958478  0.33845660     0.35900
C1007       C  0.35833788  0.78514426  0.41569016     0.35900
C1008       C  0.35548220  0.73141679  0.41558414     0.35900
C1009       C  0.37491310  0.85829845  0.36220280    -0.21600
C1010       C  0.36179215  0.85879391  0.38089443    -0.21600
C1011       C  0.36886891  0.65753265  0.36312797    -0.21600
C1012       C  0.35518479  0.65791188  0.38165761    -0.21600
C1013       C  0.43487882  0.77358380  0.32289264    -0.22700
C1014       C  0.43388816  0.73923386  0.32298012    -0.22600
C1015       C  0.35100707  0.77513303  0.43482494    -0.22700
C1016       C  0.34925171  0.74104074  0.43476969    -0.22600
C1017       C  0.40806326  0.81760460  0.34315984    -0.18000
C1018       C  0.35905979  0.81845150  0.40885089    -0.18000
C1019       C  0.35344126  0.69847312  0.40877975    -0.18000
C1020       C  0.40455462  0.69618438  0.34355761    -0.18000
H1021       H  0.37522934  0.87907322  0.35187292     0.14900
H1022       H  0.34979594  0.87990489  0.38763949     0.14900
H1023       H  0.36860691  0.63659806  0.35330780     0.14900
H1024       H  0.34219830  0.63738454  0.38874934     0.14900
H1025       H  0.44865896  0.78916944  0.31260298     0.13200
H1026       H  0.44674196  0.72322036  0.31278338     0.13200
H1027       H  0.34651291  0.79077923  0.44737504     0.13200
H1028       H  0.34320204  0.72521526  0.44729815     0.13200
H1029       H  0.39522432  0.78540136  0.37925940     0.26500
H1030       H  0.39185821  0.72954270  0.37893086     0.26500
N1031       N  0.14122888  0.70805924  0.37542014    -0.36300
N1032       N  0.13750733  0.75931032  0.40389532    -0.56900
N1033       N  0.13743609  0.80655010  0.37212800    -0.36300
N1034       N  0.14170601  0.75502222  0.34257680    -0.56900
C1035       C  0.15082829  0.69182724  0.39219044     0.27300
C1036       C  0.15102293  0.68941071  0.36009902     0.27300
C1037       C  0.14569151  0.82572926  0.38763342     0.27300
C1038       C  0.14603934  0.82346394  0.35559781     0.27300
C1039       C  0.12971457  0.73304160  0.41542715     0.35900
C1040       C  0.12802167  0.78648842  0.41365639     0.35900
C1041       C  0.13231639  0.72705276  0.33320812     0.35900
C1042       C  0.13083096  0.78100594  0.33133248     0.35900
C1043       C  0.16776262  0.66285370  0.38742845    -0.21600
C1044       C  0.16762854  0.66121563  0.36712349    -0.21600
C1045       C  0.16059008  0.85487208  0.38086236    -0.21600
C1046       C  0.16028180  0.85366332  0.36056549    -0.21600
C1047       C  0.11424127  0.74337077  0.43252432    -0.22700
C1048       C  0.11354387  0.77760231  0.43150810    -0.22600
C1049       C  0.11585145  0.73527963  0.31564863    -0.22700
C1050       C  0.11518088  0.76960005  0.31437217    -0.22600
C1051       C  0.14100115  0.70084835  0.41143894    -0.18000
C1052       C  0.13969327  0.69456720  0.34046020    -0.18000
C1053       C  0.13541033  0.81463340  0.33652533    -0.18000
C1054       C  0.13666198  0.81872269  0.40741110    -0.18000
H1055       H  0.17779259  0.64412205  0.39752088     0.14900
H1056       H  0.17725738  0.64093143  0.35850144     0.14900
H1057       H  0.16933678  0.87551402  0.38955988     0.14900
H1058       H  0.16844795  0.87324405  0.35058896     0.14900
H1059       H  0.10598189  0.72797029  0.44478782     0.13200
H1060       H  0.10444052  0.79404820  0.44277226     0.13200
H1061       H  0.10524317  0.71841811  0.30498720     0.13200
H1062       H  0.10392765  0.78442109  0.30257088     0.13200
H1063       H  0.12416579  0.72776142  0.37444414     0.26500
H1064       H  0.12190685  0.78569203  0.37253738     0.26500
C1065       C  0.17537690  0.92912213  0.45363453     0.42800
N1066       N  0.18393579  0.97017961  0.47248913     0.01600
C1067       C  0.32377977  0.57053446  0.47621521    -0.06200
H1068       H  0.34852354  0.93675177  0.48644231     0.07100
C1069       C  0.27650046  0.94264947  0.54852221    -0.06600
Co1070     Co  0.24523920  0.50681139  0.46137133     0.74200
N1071       N  0.30663068  0.96857109  0.47923749    -0.25800
Co1072     Co  0.30310005  0.50673870  0.50007651     0.74100
C1073       C  0.30946441  0.92800728  0.54494623     0.42900
N1074       N  0.19893139  0.96767607  0.53100376     0.01300
N1075       N  0.30022413  0.96721628  0.52364488     0.01400
N1076       N  0.28587493  0.56911848  0.45115025    -0.46600
H1077       H  0.22373853  0.93945825  0.43603662     0.07100
N1078       N  0.28509878  0.96979854  0.46425549     0.01700
N1079       N  0.29743714  0.54268155  0.52230169     0.01400
C1080       C  0.30220702  0.58515251  0.54138329     0.43000
N1081       N  0.17711986  0.96822800  0.51614960    -0.25200
C1082       C  0.20353355  0.56962658  0.44948150    -0.06100
N1083       N  0.16247769  0.94568923  0.46895671    -0.46300
N1084       N  0.31630143  0.56928394  0.52590296    -0.46500
C1085       C  0.17271984  0.58531833  0.45622287     0.42800
N1086       N  0.28164262  0.54387752  0.46359037     0.01600
N1087       N  0.17543982  0.53803685  0.51688267    -0.25200
N1088       N  0.20984265  0.97057172  0.46032579    -0.25700
N1089       N  0.19750443  0.53734079  0.53155510     0.01300
H1090       H  0.13414793  0.57115103  0.50936782     0.07200
H1091       H  0.25489204  0.56880522  0.55878531     0.07200
N1092       N  0.30354960  0.54400568  0.47834120    -0.25800
N1093       N  0.27347859  0.96707575  0.53512350    -0.25400
N1094       N  0.18130348  0.54111034  0.47331624     0.01600
C1095       C  0.31861049  0.92948781  0.45716090     0.43000
C1096       C  0.15541894  0.94282718  0.51847279    -0.06600
N1097       N  0.27185066  0.54014141  0.53455973    -0.25400
H1098       H  0.25826993  0.93698123  0.55981819     0.07200
N1099       N  0.29136132  0.94712552  0.45088989    -0.46600
H1100       H  0.13500102  0.93649973  0.50850803     0.07200
C1101       C  0.16518982  0.57855997  0.53796169     0.42900
C1102       C  0.20648331  0.94551869  0.44773603    -0.06100
Co1103     Co  0.17859217  0.50330864  0.49452652     0.73800
N1104       N  0.19349251  0.94296177  0.54363300    -0.46300
C1105       C  0.31216328  0.58715587  0.45794133     0.43100
N1106       N  0.16017244  0.56651533  0.47105160    -0.46300
Co1107     Co  0.23638628  0.50248999  0.53293063     0.73900
C1108       C  0.27281739  0.56533792  0.54708355    -0.06600
C1109       C  0.32863599  0.94368904  0.47623889    -0.06200
N1110       N  0.20680825  0.54234423  0.46087030    -0.25700
N1111       N  0.32259314  0.94400674  0.52900072    -0.46500
H1112       H  0.34310408  0.57735657  0.48666678     0.07100
C1113       C  0.15393413  0.56345359  0.51954352    -0.06600
Cl1114     Cl  0.24090520  0.50482863  0.49721773    -0.49600
C1115       C  0.16650070  0.92627148  0.53673844     0.42900
H1116       H  0.22064939  0.57759303  0.43800332     0.07100
N1117       N  0.19241642  0.56120266  0.54436414    -0.46300
N1118       N  0.37469374  0.80196687  0.62440259    -0.36300
N1119       N  0.38635772  0.75005059  0.65346190    -0.56900
N1120       N  0.37176348  0.70188048  0.62328285    -0.36300
N1121       N  0.36153708  0.75409689  0.59360863    -0.56900
C1122       C  0.38934667  0.81899851  0.63923496     0.27300
C1123       C  0.37769698  0.82071249  0.60778464     0.27300
C1124       C  0.38585015  0.68200531  0.63747878     0.27300
C1125       C  0.37034171  0.68434972  0.60640136     0.27300
C1126       C  0.38422287  0.77629816  0.66561927     0.35900
C1127       C  0.38473315  0.72232475  0.66493162     0.35900
C1128       C  0.35035993  0.78222799  0.58450470     0.35900
C1129       C  0.34720871  0.72841063  0.58404578     0.35900
C1130       C  0.40240363  0.84862347  0.63189266    -0.21600
C1131       C  0.39498318  0.84972256  0.61203090    -0.21600
C1132       C  0.39397537  0.65160651  0.62935858    -0.21600
C1133       C  0.38388731  0.65298124  0.60982340    -0.21600
C1134       C  0.38124229  0.76524604  0.68497348    -0.22700
C1135       C  0.38159129  0.73100873  0.68454579    -0.22600
C1136       C  0.32925465  0.77442736  0.56882583    -0.22700
C1137       C  0.32729948  0.74023558  0.56851088    -0.22600
C1138       C  0.38826353  0.80981656  0.65944278    -0.18000
C1139       C  0.36068495  0.81458228  0.58976118    -0.18000
C1140       C  0.35302007  0.69452811  0.58890320    -0.18000
C1141       C  0.38816256  0.68947740  0.65791966    -0.18000
H1142       H  0.41486897  0.86798308  0.64011724     0.14900
H1143       H  0.40042553  0.87015717  0.60199090     0.14900
H1144       H  0.40483105  0.63016815  0.63689798     0.14900
H1145       H  0.38534498  0.63284471  0.59947208     0.14900
H1146       H  0.37958633  0.78027620  0.69802584     0.13200
H1147       H  0.38000329  0.71442194  0.69722258     0.13200
H1148       H  0.31671957  0.79152710  0.55866865     0.13200
H1149       H  0.31285759  0.72576200  0.55809298     0.13200
H1150       H  0.35905570  0.78135558  0.62609760     0.26500
H1151       H  0.35924807  0.72417694  0.62559421     0.26500
N1152       N  0.12205488  0.70138048  0.61983991    -0.36300
N1153       N  0.13507722  0.75188221  0.58985878    -0.56900
N1154       N  0.12713027  0.80197933  0.61944855    -0.36300
N1155       N  0.11709483  0.75170431  0.64995035    -0.56900
C1156       C  0.13339643  0.68231563  0.60501541     0.27300
C1157       C  0.12166369  0.68218895  0.63636260     0.27300
C1158       C  0.13908806  0.82039209  0.60420130     0.27300
C1159       C  0.12996674  0.82046048  0.63583327     0.27300
C1160       C  0.13069456  0.72519465  0.57835361     0.35900
C1161       C  0.13153192  0.77883729  0.57794758     0.35900
C1162       C  0.10619174  0.72531494  0.66063278     0.35900
C1163       C  0.10961128  0.77887614  0.66048314     0.35900
C1164       C  0.14004699  0.65049283  0.61221375    -0.21600
C1165       C  0.13233651  0.65033186  0.63195298    -0.21600
C1166       C  0.15006645  0.85087121  0.61102648    -0.21600
C1167       C  0.14402411  0.85101794  0.63099087    -0.21600
C1168       C  0.12447192  0.73513127  0.55900242    -0.22700
C1169       C  0.12493139  0.76927527  0.55874718    -0.22600
C1170       C  0.09267986  0.73564756  0.67830905    -0.22700
C1171       C  0.09484448  0.76967380  0.67821571    -0.22600
C1172       C  0.13522256  0.69213335  0.58489813    -0.18000
C1173       C  0.10944237  0.69194688  0.65493415    -0.18000
C1174       C  0.11655631  0.81184353  0.65445851    -0.18000
C1175       C  0.13655024  0.81175529  0.58408489    -0.18000
H1176       H  0.14871160  0.62931317  0.60400804     0.14900
H1177       H  0.13402446  0.62904023  0.64186617     0.14900
H1178       H  0.16014548  0.87136199  0.60239864     0.14900
H1179       H  0.14858706  0.87161193  0.64072550     0.14900
H1180       H  0.12050266  0.71938867  0.54639895     0.13200
H1181       H  0.12127711  0.78520799  0.54589283     0.13200
H1182       H  0.08224168  0.72028714  0.68999469     0.13200
H1183       H  0.08634589  0.78579656  0.68980491     0.13200
H1184       H  0.11120486  0.72478838  0.61833213     0.26500
H1185       H  0.11295230  0.78040060  0.61823223     0.26500
C1186       C  0.44472838  0.58375488  0.29598151     0.42800
N1187       N  0.47576677  0.56647906  0.27237977     0.01600
C1188       C  0.46387340  0.93063287  0.21155029    -0.06200
H1189       H  0.50142262  0.89678265  0.28137918     0.07100
C1190       C  0.10479005  0.96050109  0.28275855    -0.06600
Co1191     Co  0.45500561  0.00600568  0.25275619     0.74200
N1192       N  0.48676032  0.94395185  0.26849366    -0.25800
Co1193     Co  0.01843423  0.95166344  0.24766126     0.74100
C1194       C  0.09331804  0.92678463  0.28817710     0.42900
N1195       N  0.07698231  0.54930547  0.27317865     0.01300
N1196       N  0.05791972  0.94879436  0.26780245     0.01400
N1197       N  0.42358875  0.96742692  0.21968076    -0.46600
H1198       H  0.40929600  0.53824045  0.29316448     0.07100
N1199       N  0.46269475  0.96558088  0.27255119     0.01700
N1200       N  0.05515342  0.95610999  0.22515310     0.01400
C1201       C  0.09102024  0.94842789  0.20183993     0.43000
N1202       N  0.05190299  0.57099585  0.27210749    -0.25200
C1203       C  0.42518078  0.54481882  0.21787258    -0.06100
N1204       N  0.47155676  0.59106229  0.28479454    -0.46300
N1205       N  0.06206171  0.93638230  0.21004074    -0.46500
C1206       C  0.43431309  0.57453128  0.20681264     0.42800
N1207       N  0.45144961  0.97173009  0.23021740     0.01600
N1208       N  0.05092319  0.57160738  0.22938573    -0.25200
N1209       N  0.45354395  0.54223859  0.27454670    -0.25700
N1210       N  0.07585404  0.54981982  0.23016482     0.01300
H1211       H  0.04542979  0.61846818  0.21368895     0.07200
H1212       H  0.12539056  0.98995154  0.21290240     0.07200
N1213       N  0.47590359  0.95082453  0.22581888    -0.25800
N1214       N  0.08086946  0.97225799  0.27008246    -0.25400
N1215       N  0.47218009  0.56477625  0.22931818     0.01600
C1216       C  0.45783583  0.92647190  0.29443019     0.43000
C1217       C  0.05615286  0.59392907  0.28585568    -0.06600
N1218       N  0.07884354  0.97875665  0.22761373    -0.25400
H1219       H  0.12812356  0.97294555  0.28648000     0.07200
N1220       N  0.44386629  0.95542125  0.28766999    -0.46600
H1221       H  0.04067147  0.61584914  0.28758092     0.07200
C1222       C  0.09155351  0.58493898  0.20815193     0.42900
C1223       C  0.43204968  0.55134030  0.28900089    -0.06100
Co1224     Co  0.01391361  0.56998731  0.25102620     0.73800
N1225       N  0.09966711  0.55744874  0.28692273    -0.46300
C1226       C  0.42866341  0.94189946  0.20752162     0.43100
N1227       N  0.46325894  0.58639859  0.21508309    -0.46300
Co1228     Co  0.07982733  0.01266103  0.25012622     0.73900
C1229       C  0.10230017  0.97568997  0.21382001    -0.06600
C1230       C  0.48588636  0.91890464  0.28164586    -0.06200
N1231       N  0.44970245  0.54078086  0.23140478    -0.25700
N1232       N  0.06420421  0.92181310  0.27842039    -0.46500
H1233       H  0.47763356  0.91008857  0.20544619     0.07100
C1234       C  0.05867856  0.59515620  0.21585412    -0.06600
Cl1235     Cl  0.01782446  0.01217807  0.25078688    -0.49600
C1236       C  0.08717483  0.58473280  0.29595991     0.42900
H1237       H  0.40272223  0.52968539  0.21658703     0.07100
N1238       N  0.09996265  0.55644566  0.21748606    -0.46300
C1239       C  0.42619712  0.81164279  0.96288050     0.42800
N1240       N  0.47291929  0.80191055  0.97814519     0.01600
C1241       C  0.06419058  0.65199584  0.97269916    -0.06200
H1242       H  0.43222779  0.64079772  0.98925345     0.07100
C1243       C  0.44981541  0.70838241  0.05093500    -0.06600
Co1244     Co  0.00100340  0.73325006  0.96166928     0.74200
N1245       N  0.46554032  0.68112445  0.98185716    -0.25800
Co1246     Co  0.00514189  0.67440521  0.99933476     0.74100
C1247       C  0.42763508  0.68193178  0.04452183     0.42900
N1248       N  0.48061414  0.78222890  0.03599273     0.01300
N1249       N  0.47036899  0.68497009  0.02529935     0.01400
N1250       N  0.06073153  0.69104287  0.94829372    -0.46600
H1251       H  0.43210968  0.76584976  0.94348649     0.07100
N1252       N  0.46524327  0.70375673  0.96763637     0.01700
N1253       N  0.04541080  0.67440465  0.01960689     0.01400
C1254       C  0.08603280  0.66040430  0.03921321     0.43000
N1255       N  0.48044277  0.80515680  0.02189942    -0.25200
C1256       C  0.05962200  0.77054639  0.94337691    -0.06100
N1257       N  0.44741788  0.82345838  0.97687506    -0.46300
N1258       N  0.06732413  0.65008364  0.02364866    -0.46500
C1259       C  0.08078461  0.79881526  0.94793541     0.42800
N1260       N  0.03664004  0.69496916  0.96145490     0.01600
N1261       N  0.05270287  0.79474428  0.01516449    -0.25200
N1262       N  0.46954159  0.77725973  0.96563281    -0.25700
N1263       N  0.05265100  0.77208649  0.02940942     0.01300
H1264       H  0.08726983  0.83461058  0.00822125     0.07200
H1265       H  0.07948773  0.70742438  0.05735936     0.07200
N1266       N  0.03824304  0.67259015  0.97589063    -0.25800
N1267       N  0.47496651  0.70897482  0.03804709    -0.25400
N1268       N  0.04410128  0.79208484  0.97087711     0.01600
C1269       C  0.42161715  0.67388653  0.96160846     0.43000
C1270       C  0.45644125  0.82769361  0.02611479    -0.06600
N1271       N  0.04858402  0.69942714  0.03177677    -0.25400
H1272       H  0.44740483  0.72455675  0.06327120     0.07200
N1273       N  0.43960837  0.70029403  0.95526578    -0.46600
H1274       H  0.45038805  0.84949298  0.01724535     0.07200
C1275       C  0.09839118  0.79935097  0.03493742     0.42900
C1276       C  0.44127603  0.78180743  0.95504179    -0.06100
Co1277     Co  0.01173692  0.79706723  0.99513886     0.73800
N1278       N  0.45793393  0.78776415  0.04977315    -0.46300
C1279       C  0.07888334  0.66446263  0.95449362     0.43100
N1280       N  0.06973820  0.81123894  0.96525044    -0.46300
Co1281     Co  0.01419349  0.73787059  0.03272586     0.73900
C1282       C  0.07369579  0.69302189  0.04447520    -0.06600
C1283       C  0.43866087  0.66118370  0.97949804    -0.06200
N1284       N  0.03838340  0.76798856  0.95835798    -0.25700
N1285       N  0.44192388  0.66826958  0.02847779    -0.46500
H1286       H  0.07254108  0.63192956  0.98236125     0.07100
C1287       C  0.08069132  0.81343675  0.01740518    -0.06600
Cl1288     Cl  0.00797350  0.73572946  0.99720688    -0.49600
C1289       C  0.44161643  0.81613444  0.04485301     0.42900
H1290       H  0.05963280  0.75464325  0.93067187     0.07100
N1291       N  0.07899036  0.77415655  0.04136697    -0.46300
N1292       N  0.18311986  0.84846548  0.86908474    -0.36300
N1293       N  0.26211072  0.87922042  0.84650025    -0.56900
N1294       N  0.30995130  0.87079380  0.87913732    -0.36300
N1295       N  0.25840538  0.84204449  0.90297679    -0.56900
C1296       C  0.19892744  0.84765845  0.85151387     0.27300
C1297       C  0.19918008  0.82612697  0.88092794     0.27300
C1298       C  0.33060773  0.87252256  0.86331715     0.27300
C1299       C  0.32790936  0.85690935  0.89429882     0.27300
C1300       C  0.23448119  0.88960693  0.83621433     0.35900
C1301       C  0.28886935  0.89592578  0.83935236     0.35900
C1302       C  0.22892987  0.83514422  0.91193735     0.35900
C1303       C  0.28107633  0.84839896  0.91736373     0.35900
C1304       C  0.22250740  0.82205463  0.85167314    -0.21600
C1305       C  0.22324206  0.80899992  0.87044476    -0.21600
C1306       C  0.36189647  0.85908207  0.86847700    -0.21600
C1307       C  0.36025083  0.84947784  0.88804735    -0.21600
C1308       C  0.24338655  0.91423650  0.82279225    -0.22700
C1309       C  0.27812454  0.91800740  0.82463165    -0.22600
C1310       C  0.23258590  0.83743963  0.93221697    -0.22700
C1311       C  0.26578129  0.84605446  0.93566997    -0.22600
C1312       C  0.20190306  0.87601451  0.83931972    -0.18000
C1313       C  0.19897412  0.82793783  0.90150815    -0.18000
C1314       C  0.31593922  0.85234068  0.91382785    -0.18000
C1315       C  0.32270618  0.88864019  0.84500323    -0.18000
H1316       H  0.24062849  0.81670619  0.84026633     0.14900
H1317       H  0.24153811  0.79128383  0.87626323     0.14900
H1318       H  0.38388582  0.85686715  0.85920432     0.14900
H1319       H  0.38055624  0.83830232  0.89667738     0.14900
H1320       H  0.22688189  0.92726065  0.81245137     0.13200
H1321       H  0.29375756  0.93455737  0.81591209     0.13200
H1322       H  0.21354024  0.83324529  0.94333348     0.13200
H1323       H  0.27744287  0.84950606  0.94999278     0.13200
H1324       H  0.16714382  0.86732790  0.87388308     0.26500
H1325       H  0.28615531  0.88178542  0.88019041     0.26500
N1326       N  0.20310116  0.63020171  0.87195134    -0.36300
N1327       N  0.25425895  0.62283621  0.84195051    -0.56900
N1328       N  0.30549853  0.62287773  0.87337907    -0.36300
N1329       N  0.25402514  0.63328484  0.90261876    -0.56900
C1330       C  0.18414979  0.63525800  0.85547218     0.27300
C1331       C  0.18404641  0.63886446  0.88749446     0.27300
C1332       C  0.32505176  0.62254082  0.85718147     0.27300
C1333       C  0.32504355  0.63318606  0.88857142     0.27300
C1334       C  0.22625652  0.61585536  0.83120597     0.35900
C1335       C  0.28053012  0.60894531  0.83246678     0.35900
C1336       C  0.22672208  0.62939031  0.91415185     0.35900
C1337       C  0.28128813  0.63053466  0.91459885     0.35900
C1338       C  0.15254184  0.64709956  0.86066000    -0.21600
C1339       C  0.15265987  0.64988653  0.88081987    -0.21600
C1340       C  0.35772283  0.63190467  0.86216045    -0.21600
C1341       C  0.35765236  0.63893871  0.88195976    -0.21600
C1342       C  0.23496476  0.59843260  0.81450770    -0.22700
C1343       C  0.26933772  0.59379284  0.81540816    -0.22600
C1344       C  0.23667957  0.62399242  0.93361422    -0.22700
C1345       C  0.27137192  0.62524486  0.93393420    -0.22600
C1346       C  0.19285582  0.62455367  0.83642894    -0.18000
C1347       C  0.19310474  0.63404442  0.90758056    -0.18000
C1348       C  0.31477639  0.63552515  0.90843843    -0.18000
C1349       C  0.31470567  0.61136677  0.83844260    -0.18000
H1350       H  0.13101041  0.65183449  0.85106788     0.14900
H1351       H  0.13147746  0.65779867  0.88959435     0.14900
H1352       H  0.37939806  0.63329294  0.85254887     0.14900
H1353       H  0.37933694  0.64666689  0.89058410     0.14900
H1354       H  0.21826643  0.58951885  0.80302515     0.13200
H1355       H  0.28441279  0.58091235  0.80468317     0.13200
H1356       H  0.22063586  0.62047936  0.94632332     0.13200
H1357       H  0.28743347  0.62269131  0.94688341     0.13200
H1358       H  0.22537005  0.61665771  0.87281383     0.26500
H1359       H  0.28143900  0.61290577  0.87427890     0.26500
C1360       C  0.43521208  0.92092553  0.70436871     0.42800
N1361       N  0.44612575  0.96311436  0.72239623     0.01600
C1362       C  0.09147152  0.56035076  0.72097260    -0.06200
H1363       H  0.11486422  0.93058355  0.73278012     0.07100
C1364       C  0.05670927  0.94467803  0.79937878    -0.06600
Co1365     Co  0.01322125  0.99983355  0.70990594     0.74200
N1366       N  0.07298913  0.96278003  0.72624652    -0.25800
Co1367     Co  0.07238319  0.99933328  0.74794922     0.74100
C1368       C  0.08950734  0.93084093  0.79375774     0.42900
N1369       N  0.46649356  0.96846602  0.78142323     0.01300
N1370       N  0.07121021  0.96396094  0.77073527     0.01400
N1371       N  0.05255524  0.55714325  0.69658833    -0.46600
H1372       H  0.48244276  0.92987861  0.68546587     0.07100
N1373       N  0.05067071  0.96402096  0.71171749     0.01700
N1374       N  0.06826794  0.53770912  0.76760050     0.01400
C1375       C  0.08425728  0.57618469  0.78728990     0.43000
N1376       N  0.44389313  0.96704878  0.76695261    -0.25200
C1377       C  0.46183451  0.55870441  0.69676316    -0.06100
N1378       N  0.42392401  0.93875117  0.71976714    -0.46300
N1379       N  0.09250701  0.55953909  0.77092098    -0.46500
C1380       C  0.43086241  0.57427822  0.70353070     0.42800
N1381       N  0.04858601  0.53308087  0.70980695     0.01600
N1382       N  0.43931339  0.52976026  0.76568510    -0.25200
N1383       N  0.47098830  0.96237916  0.70954992    -0.25700
N1384       N  0.46137739  0.53087991  0.78038951     0.01300
H1385       H  0.38981912  0.55102556  0.76138074     0.07200
H1386       H  0.03911385  0.56617853  0.80770049     0.07200
N1387       N  0.07109465  0.53430499  0.72415117    -0.25800
N1388       N  0.04716623  0.96452523  0.78412329    -0.25400
N1389       N  0.44188191  0.53126488  0.72178034     0.01600
C1390       C  0.08214491  0.92225665  0.70450780     0.43000
C1391       C  0.41947729  0.94585234  0.77246964    -0.06600
N1392       N  0.04400658  0.53877602  0.78084324    -0.25400
H1393       H  0.04403921  0.94285643  0.81342661     0.07200
N1394       N  0.05528096  0.94066960  0.69864075    -0.46600
H1395       H  0.39571938  0.94267279  0.76470601     0.07200
C1396       C  0.42129769  0.56378172  0.78877059     0.42900
C1397       C  0.46623065  0.93668361  0.69751979    -0.06100
Co1398     Co  0.44447177  0.00132622  0.74316439     0.72600
N1399       N  0.45833513  0.94964919  0.79684984    -0.46300
C1400       C  0.07914750  0.57576546  0.70248638     0.43100
N1401       N  0.41973991  0.55594401  0.71911270    -0.46300
Co1402     Co  0.00781009  0.99967144  0.78221455     0.73900
C1403       C  0.05184444  0.56242177  0.79385686    -0.06600
C1404       C  0.09403759  0.93709782  0.72313482    -0.06200
N1405       N  0.46670414  0.53249474  0.70891400    -0.25700
N1406       N  0.09692217  0.94458685  0.77603709    -0.46500
H1407       H  0.11155161  0.56720334  0.73088328     0.07100
C1408       C  0.41343541  0.55001302  0.76954466    -0.06600
Cl1409     Cl  0.01048522  0.99920554  0.74600106    -0.49600
C1410       C  0.42890688  0.93442059  0.79246080     0.42900
H1411       H  0.47829572  0.56638997  0.68489780     0.07100
N1412       N  0.45121750  0.55052595  0.79468423    -0.46300
N1413       N  0.26160947  0.62715033  0.15649943    -0.36300
N1414       N  0.30678026  0.64490473  0.12520617    -0.56900
N1415       N  0.25275076  0.63815757  0.09541318    -0.36300
N1416       N  0.20890652  0.61619581  0.12551684    -0.56900
C1417       C  0.29139629  0.61659294  0.16452381     0.27300
C1418       C  0.23651327  0.61181920  0.16648771     0.27300
C1419       C  0.27480807  0.65734774  0.08530079     0.27300
C1420       C  0.22259051  0.63981550  0.08570991     0.27300
C1421       C  0.32982285  0.64252687  0.14007958     0.35900
C1422       C  0.32353644  0.65639156  0.10923821     0.35900
C1423       C  0.19358639  0.60370278  0.14162215     0.35900
C1424       C  0.19016539  0.60675990  0.10982992     0.35900
C1425       C  0.28504327  0.59378173  0.17955554    -0.21600
C1426       C  0.25045042  0.59022619  0.18050337    -0.21600
C1427       C  0.25882787  0.67080991  0.06874045    -0.21600
C1428       C  0.22562832  0.66067947  0.06935128    -0.21600
C1429       C  0.36105750  0.65353223  0.13370211    -0.22700
C1430       C  0.35716564  0.66213513  0.11418324    -0.22600
C1431       C  0.16598943  0.58462548  0.13624476    -0.22700
C1432       C  0.16400441  0.58627103  0.11598878    -0.22600
C1433       C  0.32411539  0.62673953  0.15852787    -0.18000
C1434       C  0.20197012  0.61320402  0.16093668    -0.18000
C1435       C  0.19315372  0.62149518  0.09084622    -0.18000
C1436       C  0.30931407  0.66185849  0.09016906    -0.18000
H1437       H  0.30346306  0.58003705  0.18834240     0.14900
H1438       H  0.23742986  0.57192462  0.18946985     0.14900
H1439       H  0.26981602  0.68642514  0.05738398     0.14900
H1440       H  0.20619651  0.66761194  0.05873379     0.14900
H1441       H  0.38447181  0.65431379  0.14207294     0.13200
H1442       H  0.37702052  0.67136259  0.10469525     0.13200
H1443       H  0.14846796  0.57196474  0.14595188     0.13200
H1444       H  0.14434073  0.57542094  0.10695885     0.13200
H1445       H  0.25783517  0.64522721  0.14552160     0.26500
H1446       H  0.25918512  0.62194526  0.10695552     0.26500
N1447       N  0.26366016  0.87014795  0.08892855    -0.36300
N1448       N  0.31184626  0.88816473  0.11978355    -0.56900
N1449       N  0.25680782  0.90121251  0.14670707    -0.36300
N1450       N  0.20847344  0.88115353  0.11648952    -0.56900
C1451       C  0.29284394  0.85784824  0.08170125     0.27300
C1452       C  0.23798987  0.85377176  0.08004783     0.27300
C1453       C  0.28341960  0.90355132  0.15941274     0.27300
C1454       C  0.22803201  0.90103652  0.15744442     0.27300
C1455       C  0.33306239  0.88580522  0.10432924     0.35900
C1456       C  0.33000468  0.90137464  0.13473274     0.35900
C1457       C  0.19033486  0.87511906  0.09992170     0.35900
C1458       C  0.18635162  0.89253912  0.12991594     0.35900
C1459       C  0.28562109  0.83362366  0.06797468    -0.21600
C1460       C  0.25097994  0.83119750  0.06683963    -0.21600
C1461       C  0.27132459  0.90515583  0.17850691    -0.21600
C1462       C  0.23646472  0.90391343  0.17725354    -0.21600
C1463       C  0.36476091  0.89768807  0.10946001    -0.22700
C1464       C  0.36289323  0.90734830  0.12870763    -0.22600
C1465       C  0.15651059  0.88236252  0.10287939    -0.22700
C1466       C  0.15399816  0.89353369  0.12182060    -0.22600
C1467       C  0.32576611  0.86864581  0.08674558    -0.18000
C1468       C  0.20314497  0.85954072  0.08300881    -0.18000
C1469       C  0.19438352  0.90015619  0.14976461    -0.18000
C1470       C  0.31809523  0.90645591  0.15411666    -0.18000
H1471       H  0.30345949  0.81927057  0.05958068     0.14900
H1472       H  0.23697602  0.81459265  0.05740282     0.14900
H1473       H  0.28606069  0.90771717  0.19192623     0.14900
H1474       H  0.21927232  0.90516077  0.18955139     0.14900
H1475       H  0.38724353  0.89825354  0.10047304     0.13200
H1476       H  0.38360157  0.91719841  0.13735347     0.13200
H1477       H  0.13569072  0.87919605  0.09260771     0.13200
H1478       H  0.13080625  0.90074426  0.12896131     0.13200
H1479       H  0.26133242  0.89063005  0.09799834     0.26500
H1480       H  0.25795022  0.90329901  0.13147215     0.26500
C1481       C  0.15561617  0.58044540  0.82484745    -0.05500
C1482       C  0.16467029  0.61392770  0.82336363     0.00400
C1483       C  0.14712270  0.63543982  0.81007757    -0.08100
C1484       C  0.11992466  0.62239632  0.79903232    -0.05500
C1485       C  0.11089677  0.58871603  0.80059413     0.00400
C1486       C  0.12964883  0.56708869  0.81328471    -0.08000
C1487       C  0.12306576  0.52994807  0.81448006     0.62300
H1488       H  0.16973840  0.56465972  0.83507709     0.13000
H1489       H  0.10597538  0.63819132  0.78873769     0.13000
C1490       C  0.15779503  0.67139091  0.80712218     0.62600
F1491       F  0.14621296  0.51388438  0.82674011    -0.22600
F1492       F  0.12579102  0.51615598  0.79603268    -0.19900
F1493       F  0.09111185  0.52409987  0.82180452    -0.19600
F1494       F  0.19093439  0.67252207  0.80083249    -0.19600
F1495       F  0.15532079  0.68844375  0.82456797    -0.20000
F1496       F  0.13779197  0.68763909  0.79313185    -0.22600
C1497       C  0.35497550  0.56801440  0.82883980    -0.05500
C1498       C  0.34135540  0.59957854  0.82500523     0.00400
C1499       C  0.35413453  0.61950522  0.80942919    -0.08100
C1500       C  0.38087805  0.60702485  0.79818433    -0.05500
C1501       C  0.39503303  0.57568922  0.80225731     0.00400
C1502       C  0.38165367  0.55552763  0.81764459    -0.08000
C1503       C  0.39575065  0.52135879  0.82255278     0.62300
H1504       H  0.34474195  0.55344399  0.84095662     0.13000
H1505       H  0.39091041  0.62159610  0.78601392     0.13000
C1506       C  0.33953830  0.65364323  0.80477214     0.62600
F1507       F  0.37622366  0.50447722  0.83628741    -0.22600
F1508       F  0.42789197  0.52493174  0.83036866    -0.19900
F1509       F  0.39696669  0.50230401  0.80576747    -0.19600
F1510       F  0.34086692  0.67309591  0.82138741    -0.19600
F1511       F  0.30628669  0.65068167  0.79863362    -0.20000
F1512       F  0.35719907  0.66977789  0.78993118    -0.22600
C1513       C  0.15906808  0.87296712  0.81275324    -0.05500
C1514       C  0.17113586  0.88988871  0.82933413     0.00400
C1515       C  0.15412057  0.91910045  0.83535913    -0.08100
C1516       C  0.12656710  0.93111989  0.82386805    -0.05500
C1517       C  0.11566264  0.91496419  0.80672262     0.00400
C1518       C  0.13163977  0.88503188  0.80131803    -0.08000
C1519       C  0.11939111  0.86581172  0.78356635     0.62300
H1520       H  0.17195924  0.85043747  0.80853415     0.13000
H1521       H  0.11403100  0.95387848  0.82805881     0.13000
C1522       C  0.16377312  0.93868015  0.85352090     0.62600
F1523       F  0.13659029  0.83609009  0.78161938    -0.22600
F1524       F  0.12416156  0.88449554  0.76657030    -0.19900
F1525       F  0.08533778  0.85879342  0.78550663    -0.19600
F1526       F  0.17379443  0.97017793  0.84774290    -0.19600
F1527       F  0.18976360  0.92447748  0.86448602    -0.20000
F1528       F  0.13592224  0.94127554  0.86561714    -0.22600
C1529       C  0.37755010  0.91750022  0.83913216    -0.05500
C1530       C  0.35110962  0.89808388  0.83153712     0.00400
C1531       C  0.35359407  0.88642664  0.81196412    -0.08100
C1532       C  0.37918413  0.89931823  0.79979359    -0.05500
C1533       C  0.40490117  0.91988423  0.80711974     0.00400
C1534       C  0.40583231  0.92636950  0.82771472    -0.08000
C1535       C  0.43654951  0.94100811  0.83801608     0.62300
H1536       H  0.37629591  0.92484852  0.85440920     0.13000
H1537       H  0.37962102  0.89253339  0.78439526     0.13000
C1538       C  0.33075246  0.85947477  0.80386737     0.62600
F1539       F  0.43279449  0.94135554  0.85831322    -0.22600
F1540       F  0.44185536  0.97324990  0.83164804    -0.19900
F1541       F  0.46476635  0.92193369  0.83408534    -0.19600
F1542       F  0.30160322  0.87341600  0.79600324    -0.19600
F1543       F  0.32242546  0.83661162  0.81847468    -0.20000
F1544       F  0.34683914  0.84227626  0.78909881    -0.22600
C1545       C  0.13697977  0.62530666  0.04444432    -0.05500
C1546       C  0.10769809  0.63947633  0.05220097     0.00400
C1547       C  0.10362631  0.63987005  0.07288416    -0.08100
C1548       C  0.13200543  0.63410828  0.08495816    -0.05500
C1549       C  0.16270220  0.62238343  0.07730015     0.00400
C1550       C  0.16379433  0.61461605  0.05687329    -0.08000
C1551       C  0.19239322  0.59561882  0.04746901     0.62300
H1552       H  0.13941826  0.62348330  0.02857741     0.13000
H1553       H  0.13001971  0.63900909  0.10055711     0.13000
C1554       C  0.06987500  0.64588176  0.08275082     0.62600
F1555       F  0.17902703  0.56973212  0.03673563    -0.22600
F1556       F  0.21469064  0.58212306  0.06122983    -0.19900
F1557       F  0.20989627  0.61642547  0.03476883    -0.19600
F1558       F  0.04299277  0.64494571  0.06954918    -0.19600
F1559       F  0.07022296  0.67632286  0.09189476    -0.20000
F1560       F  0.06447447  0.62126453  0.09684715    -0.22600
C1561       C  0.37537375  0.70444785  0.05879477    -0.05500
C1562       C  0.39287188  0.67650038  0.05187262     0.00400
C1563       C  0.37881510  0.64448163  0.05461546    -0.08100
C1564       C  0.34881287  0.64146445  0.06546466    -0.05500
C1565       C  0.33338799  0.66910435  0.07402393     0.00400
C1566       C  0.34605768  0.70133854  0.07020867    -0.08000
C1567       C  0.32979709  0.73205860  0.07887925     0.62300
H1568       H  0.38587135  0.72887326  0.05603027     0.13000
H1569       H  0.33851367  0.61709242  0.06872917     0.13000
C1570       C  0.39640118  0.61352011  0.04733775     0.62600
F1571       F  0.32937528  0.72955306  0.09923022    -0.22600
F1572       F  0.29702359  0.73544505  0.07194654    -0.19900
F1573       F  0.34714147  0.76072262  0.07379833    -0.19600
F1574       F  0.42883623  0.61165174  0.05509873    -0.19600
F1575       F  0.39785730  0.61460706  0.02697069    -0.20000
F1576       F  0.37948290  0.58481437  0.05288144    -0.22600
C1577       C  0.14045955  0.84424596  0.04098162    -0.05500
C1578       C  0.12754680  0.81290742  0.04648169     0.00400
C1579       C  0.14220150  0.79589028  0.06319426    -0.08100
C1580       C  0.16697348  0.81214262  0.07440971    -0.05500
C1581       C  0.17839124  0.84388175  0.06936300     0.00400
C1582       C  0.16581339  0.86001720  0.05215877    -0.08000
C1583       C  0.17854139  0.89411469  0.04605866     0.62300
H1584       H  0.12997614  0.85689763  0.02813771     0.13000
H1585       H  0.17751894  0.80038286  0.08757701     0.13000
C1586       C  0.13251531  0.76076150  0.06951076     0.62600
F1587       F  0.16450449  0.90478598  0.02827174    -0.22600
F1588       F  0.21328254  0.89330969  0.04398345    -0.19900
F1589       F  0.17026699  0.91683426  0.06031884    -0.19600
F1590       F  0.13454841  0.73988646  0.05356307    -0.19600
F1591       F  0.10013971  0.76056455  0.07706082    -0.20000
F1592       F  0.15393081  0.74802548  0.08405480    -0.22600
C1593       C  0.39177449  0.85426540  0.04671415    -0.05500
C1594       C  0.41264408  0.83024230  0.05607956     0.00400
C1595       C  0.40540935  0.82067120  0.07595939    -0.08100
C1596       C  0.37575018  0.83242494  0.08462464    -0.05500
C1597       C  0.35504357  0.85607565  0.07525903     0.00400
C1598       C  0.36376748  0.86835813  0.05631575    -0.08000
C1599       C  0.34468372  0.89726061  0.04681511     0.62300
H1600       H  0.39770873  0.86236567  0.03186377     0.13000
H1601       H  0.36879456  0.82388866  0.09927492     0.13000
C1602       C  0.42883999  0.79921624  0.08866550     0.62600
F1603       F  0.35893240  0.90714503  0.02909310    -0.22600
F1604       F  0.34540169  0.92405414  0.05933622    -0.19900
F1605       F  0.31147239  0.88855077  0.04318054    -0.19600
F1606       F  0.46183099  0.81020202  0.08703771    -0.19600
F1607       F  0.42645087  0.76665889  0.08294253    -0.20000
F1608       F  0.42050093  0.80028941  0.10845186    -0.22600
C1609       C  0.12674974  0.78260849  0.92578817    -0.05500
C1610       C  0.11178319  0.80787113  0.93690403     0.00400
C1611       C  0.12506604  0.84050037  0.93572155    -0.08100
C1612       C  0.15285071  0.84653551  0.92331364    -0.05500
C1613       C  0.16737855  0.82111101  0.91224231     0.00400
C1614       C  0.15404230  0.78860809  0.91330686    -0.08000
C1615       C  0.16818476  0.76027852  0.90120127     0.62300
H1616       H  0.11669163  0.75774106  0.92665513     0.13000
H1617       H  0.16390693  0.87109122  0.92232509     0.13000
C1618       C  0.10980122  0.86887586  0.94709104     0.62600
F1619       F  0.16127232  0.76623094  0.88142681    -0.22600
F1620       F  0.15396854  0.72997229  0.90630236    -0.19900
F1621       F  0.20275441  0.75755014  0.90406652    -0.19600
F1622       F  0.11331114  0.86270109  0.96712884    -0.19600
F1623       F  0.07588981  0.87212801  0.94225332    -0.20000
F1624       F  0.12549603  0.89881209  0.94281649    -0.22600
C1625       C  0.39539231  0.85765783  0.94595692    -0.05500
C1626       C  0.39431931  0.82673098  0.95567010     0.00400
C1627       C  0.36416496  0.80796052  0.95516813    -0.08100
C1628       C  0.33879052  0.81723394  0.94153765    -0.05500
C1629       C  0.34085118  0.84691722  0.93038107     0.00400
C1630       C  0.36807641  0.86901623  0.93419722    -0.08000
C1631       C  0.36962696  0.90441266  0.92626484     0.62300
H1632       H  0.41800114  0.87271273  0.94716305     0.13000
H1633       H  0.31738878  0.80096139  0.93930381     0.13000
C1634       C  0.35799519  0.77974818  0.96987182     0.62600
F1635       F  0.37680171  0.92555628  0.94164279    -0.22600
F1636       F  0.33949128  0.91487781  0.91772267    -0.19900
F1637       F  0.39504985  0.90705283  0.91246852    -0.19600
F1638       F  0.36052407  0.79190674  0.98879175    -0.19600
F1639       F  0.38137952  0.75467178  0.96789604    -0.20000
F1640       F  0.32609594  0.76614759  0.96755268    -0.22600
C1641       C  0.16725715  0.66518515  0.93458046    -0.05500
C1642       C  0.16618095  0.63724453  0.92248246     0.00400
C1643       C  0.13825339  0.61523041  0.92356153    -0.08100
C1644       C  0.11011715  0.62473655  0.93454900    -0.05500
C1645       C  0.11045387  0.65385026  0.94549968     0.00400
C1646       C  0.14020064  0.67301004  0.94686715    -0.08000
C1647       C  0.14383015  0.70029048  0.96192119     0.62300
H1648       H  0.18932941  0.68106921  0.93410582     0.13000
H1649       H  0.08758175  0.60941551  0.93446112     0.13000
C1650       C  0.13674850  0.58170495  0.91366691     0.62600
F1651       F  0.17551070  0.71484641  0.96130804    -0.22600
F1652       F  0.13935772  0.68682040  0.98061310    -0.19900
F1653       F  0.11992938  0.72478887  0.95861006    -0.19600
F1654       F  0.13037715  0.55742914  0.92782617    -0.19600
F1655       F  0.16646053  0.57333444  0.90438119    -0.20000
F1656       F  0.11072502  0.58173779  0.89989891    -0.22600
C1657       C  0.37187004  0.68646123  0.94119262    -0.05500
C1658       C  0.39168197  0.66180279  0.95057382     0.00400
C1659       C  0.38509095  0.62783692  0.94666891    -0.08100
C1660       C  0.35915550  0.62015237  0.93309365    -0.05500
C1661       C  0.34020775  0.64512209  0.92348269     0.00400
C1662       C  0.34612285  0.67882025  0.92775679    -0.08000
C1663       C  0.32628861  0.70669821  0.91757479     0.62300
H1664       H  0.37774306  0.71218019  0.94377300     0.13000
H1665       H  0.35369634  0.59456364  0.92956906     0.13000
C1666       C  0.40577625  0.59981543  0.95594927     0.62600
F1667       F  0.29205853  0.70244942  0.92065838    -0.22600
F1668       F  0.33249957  0.70662221  0.89754514    -0.19900
F1669       F  0.33519284  0.73759503  0.92463469    -0.19600
F1670       F  0.39902772  0.59755795  0.97588361    -0.19600
F1671       F  0.43990090  0.60542588  0.95313375    -0.20000
F1672       F  0.39803829  0.56945028  0.94775296    -0.22600
C1673       C  0.36394036  0.89007927  0.17816875    -0.05500
C1674       C  0.34407829  0.91544243  0.16943402     0.00400
C1675       C  0.35212842  0.94891320  0.17330030    -0.08100
C1676       C  0.38043528  0.95587758  0.18530770    -0.05500
C1677       C  0.40127424  0.93073896  0.19360548     0.00400
C1678       C  0.39215643  0.89707172  0.19047013    -0.08000
C1679       C  0.41115396  0.86860429  0.20042793     0.62300
H1680       H  0.35745097  0.86460822  0.17492887     0.13000
H1681       H  0.38638873  0.98146022  0.18843173     0.13000
C1682       C  0.33095811  0.97719361  0.16461343     0.62600
F1683       F  0.39465518  0.83860747  0.19801310    -0.22600
F1684       F  0.41406643  0.87408912  0.22046560    -0.19900
F1685       F  0.44293165  0.86586611  0.19233945    -0.19600
F1686       F  0.29796871  0.97434751  0.17097151    -0.19600
F1687       F  0.33137200  0.97620359  0.14423889    -0.20000
F1688       F  0.34292344  0.00791957  0.17026684    -0.22600
C1689       C  0.12034759  0.90061358  0.18617791    -0.05500
C1690       C  0.11167640  0.93451079  0.18568070     0.00400
C1691       C  0.12865868  0.95609293  0.17223529    -0.08100
C1692       C  0.15632162  0.94402127  0.16169364    -0.05500
C1693       C  0.16589261  0.91058936  0.16269915     0.00400
C1694       C  0.14682529  0.88807465  0.17444324    -0.08000
C1695       C  0.15461911  0.85117217  0.17455360     0.62300
H1696       H  0.10717749  0.88430555  0.19636215     0.13000
H1697       H  0.17012883  0.96078315  0.15202169     0.13000
C1698       C  0.11849465  0.99202066  0.16825268     0.62600
F1699       F  0.13382610  0.83365499  0.18730263    -0.22600
F1700       F  0.18774941  0.84570413  0.18041406    -0.19900
F1701       F  0.14992160  0.83885372  0.15580342    -0.19600
F1702       F  0.14218590  0.01287157  0.17662990    -0.19600
F1703       F  0.08686136  0.99954798  0.17547882    -0.20000
F1704       F  0.11744601  0.99805886  0.14809512    -0.22600
C1705       C  0.39099722  0.61850976  0.19991219    -0.05500
C1706       C  0.41075464  0.59218855  0.19298234     0.00400
C1707       C  0.40383195  0.57943279  0.17402672    -0.08100
C1708       C  0.37527458  0.59109943  0.16342385    -0.05500
C1709       C  0.35439994  0.61624876  0.17072790     0.00400
C1710       C  0.36340942  0.63148379  0.18875876    -0.08000
C1711       C  0.34448423  0.66177181  0.19584017     0.62300
H1712       H  0.39675631  0.62822466  0.21436435     0.13000
H1713       H  0.36889702  0.58059997  0.14925864     0.13000
C1714       C  0.42716523  0.55411866  0.16489453     0.62600
F1715       F  0.35949484  0.67496780  0.21249030    -0.22600
F1716       F  0.31154774  0.65347658  0.20036979    -0.19900
F1717       F  0.34430585  0.68605452  0.18116577    -0.19600
F1718       F  0.43608979  0.01782591  0.18141466    -0.19600
F1719       F  0.45985560  0.56628041  0.16487707    -0.20000
F1720       F  0.43119873  0.03233492  0.14946548    -0.22600
C1721       C  0.11309545  0.62046063  0.18111774    -0.05500
C1722       C  0.11804985  0.60619406  0.19978472     0.00400
C1723       C  0.15089083  0.60617859  0.20822512    -0.08100
C1724       C  0.17854050  0.61099987  0.19577054    -0.05500
C1725       C  0.17383260  0.61817805  0.17555924     0.00400
C1726       C  0.14098171  0.62966766  0.16960461    -0.08000
C1727       C  0.13423776  0.65326186  0.15233429     0.62300
H1728       H  0.08762510  0.62393383  0.17538585     0.13000
H1729       H  0.20342407  0.60915521  0.20222749     0.13000
C1730       C  0.15773676  0.60042695  0.23007742     0.62600
F1731       F  0.11626996  0.68035989  0.15895581    -0.22600
F1732       F  0.11500666  0.63762754  0.13812606    -0.19900
F1733       F  0.16361993  0.66528451  0.14398665    -0.19600
F1734       F  0.17209108  0.56938465  0.23305064    -0.19600
F1735       F  0.12867180  0.60274424  0.24119232    -0.20000
F1736       F  0.17998526  0.62428874  0.23678833    -0.22600
C1737       C  0.06287566  0.62135747  0.67979352    -0.05500
C1738       C  0.08781964  0.60805655  0.69263901     0.00400
C1739       C  0.11944411  0.62488028  0.69430468    -0.08100
C1740       C  0.12492140  0.65325602  0.68231101    -0.05500
C1741       C  0.10015249  0.66526663  0.66915804     0.00400
C1742       C  0.06817089  0.65002918  0.66835737    -0.08000
C1743       C  0.04000072  0.66354112  0.65508650     0.62300
H1744       H  0.03909462  0.60851833  0.67815926     0.13000
H1745       H  0.14900460  0.66600278  0.68264216     0.13000
C1746       C  0.14785996  0.61322985  0.70795150     0.62600
F1747       F  0.01003135  0.64633486  0.65768503    -0.22600
F1748       F  0.04920546  0.66105700  0.63554875    -0.19900
F1749       F  0.03394073  0.69649484  0.65929641    -0.19600
F1750       F  0.15538293  0.58026492  0.70455895    -0.19600
F1751       F  0.13845316  0.61743310  0.72733382    -0.20000
F1752       F  0.17723334  0.63129164  0.70508194    -0.22600
C1753       C  0.06901532  0.88098119  0.67919461    -0.05500
C1754       C  0.09280414  0.89244306  0.69315547     0.00400
C1755       C  0.12493909  0.87644040  0.69444154    -0.08100
C1756       C  0.13168750  0.84998060  0.68162113    -0.05500
C1757       C  0.10762317  0.83912835  0.66789372     0.00400
C1758       C  0.07551280  0.85429715  0.66684083    -0.08000
C1759       C  0.04818780  0.84246980  0.65263054     0.62300
H1760       H  0.04487774  0.89338891  0.67769097     0.13000
H1761       H  0.15593504  0.83743990  0.68209148     0.13000
C1762       C  0.15234043  0.88693531  0.70877622     0.62600
F1763       F  0.01819740  0.85985682  0.65466724    -0.22600
F1764       F  0.04135283  0.80926264  0.65615576    -0.19900
F1765       F  0.05890167  0.84663831  0.63339902    -0.19600
F1766       F  0.14209110  0.88003460  0.72780543    -0.19600
F1767       F  0.15891812  0.92047361  0.70638915    -0.20000
F1768       F  0.18235255  0.86999023  0.70589823    -0.22600
C1769       C  0.42628342  0.66231642  0.68294400    -0.05500
C1770       C  0.39542318  0.66176394  0.67251231     0.00400
C1771       C  0.37339322  0.63427873  0.67550143    -0.08100
C1772       C  0.38503678  0.60658045  0.68669885    -0.05500
C1773       C  0.41675795  0.60649624  0.69615599     0.00400
C1774       C  0.43653462  0.63583918  0.69546349    -0.08000
C1775       C  0.46830623  0.64062834  0.70779259     0.62300
H1776       H  0.44263782  0.68375485  0.68129146     0.13000
H1777       H  0.36953526  0.58443249  0.68760126     0.13000
C1778       C  0.33793245  0.63255453  0.66683306     0.62600
F1779       F  0.46666983  0.67089590  0.71713624    -0.22600
F1780       F  0.49609555  0.64067279  0.69565793    -0.19900
F1781       F  0.96120606  0.63545008  0.72624809    -0.19600
F1782       F  0.33751009  0.61019623  0.65156673    -0.19600
F1783       F  0.32629190  0.66296354  0.65983905    -0.20000
F1784       F  0.31573182  0.62174148  0.68121552    -0.22600
C1785       C  0.42874304  0.83469938  0.68306403    -0.05500
C1786       C  0.39658459  0.83577347  0.67428241     0.00400
C1787       C  0.37472091  0.86282099  0.67831637    -0.08100
C1788       C  0.38740374  0.88963154  0.68940981    -0.05500
C1789       C  0.42059081  0.88942034  0.69701862     0.00400
C1790       C  0.44059171  0.86042113  0.69502819    -0.08000
C1791       C  0.47436953  0.85507059  0.70532907     0.62300
H1792       H  0.44500004  0.81355384  0.68036790     0.13000
H1793       H  0.37201584  0.91157195  0.69144369     0.13000
C1794       C  0.33826249  0.86318847  0.67104227     0.62600
F1795       F  0.99238272  0.82428356  0.71052535    -0.22600
F1796       F  0.48073224  0.87803921  0.71983234    -0.19900
F1797       F  0.00574538  0.87730709  0.70415736    -0.19600
F1798       F  0.32217506  0.83457674  0.67747049    -0.19600
F1799       F  0.33694455  0.86476589  0.65067862    -0.20000
F1800       F  0.32059322  0.89016233  0.67811438    -0.22600
C1801       C  0.29814298  0.62473561  0.56915769    -0.05500
C1802       C  0.31548097  0.61506532  0.55206629     0.00400
C1803       C  0.34414187  0.63407758  0.54614937    -0.08100
C1804       C  0.35548208  0.66014429  0.55836353    -0.05500
C1805       C  0.33881406  0.66821497  0.57586786     0.00400
C1806       C  0.30908188  0.65091857  0.58105053    -0.08000
C1807       C  0.28872001  0.66024930  0.59908810     0.62300
H1808       H  0.27577935  0.61147956  0.57357259     0.13000
H1809       H  0.37775994  0.67431431  0.55448316     0.13000
C1810       C  0.36243667  0.62762553  0.52699276     0.62600
F1811       F  0.25926716  0.64190720  0.60067396    -0.22600
F1812       F  0.27993643  0.69348898  0.59788919    -0.19900
F1813       F  0.30754895  0.65455532  0.61605887    -0.19600
F1814       F  0.33981091  0.63020616  0.51135013    -0.19600
F1815       F  0.37679346  0.59628637  0.52754564    -0.20000
F1816       F  0.38811346  0.65029569  0.52366216    -0.22600
C1817       C  0.34764288  0.87894386  0.54781305    -0.05500
C1818       C  0.32644107  0.90176910  0.55711829     0.00400
C1819       C  0.32012295  0.89755146  0.57759229    -0.08100
C1820       C  0.32953615  0.86757056  0.58686829    -0.05500
C1821       C  0.35001063  0.84413323  0.57753840     0.00400
C1822       C  0.36110743  0.85102788  0.55800532    -0.08000
C1823       C  0.38784137  0.83117403  0.54743130     0.62300
H1824       H  0.35402545  0.88305079  0.53244331     0.13000
H1825       H  0.32244394  0.86319205  0.60211148     0.13000
C1826       C  0.30648407  0.92479674  0.59063728     0.62600
F1827       F  0.37415400  0.81849637  0.53029007    -0.22600
F1828       F  0.40100167  0.80522503  0.55863836    -0.19900
F1829       F  0.41429926  0.85208792  0.54252984    -0.19600
F1830       F  0.27228379  0.92016839  0.59363879    -0.19600
F1831       F  0.31210566  0.95609054  0.58261591    -0.20000
F1832       F  0.32274191  0.92378653  0.60882858    -0.22600
C1833       C  0.18072221  0.63330059  0.55078140    -0.05500
C1834       C  0.15495887  0.61039436  0.54670425     0.00400
C1835       C  0.12175550  0.61634691  0.55349870    -0.08100
C1836       C  0.11597276  0.64429233  0.56521940    -0.05500
C1837       C  0.14214741  0.66619393  0.57008720     0.00400
C1838       C  0.17486019  0.66140663  0.56229750    -0.08000
C1839       C  0.20374627  0.68498358  0.56689165     0.62300
H1840       H  0.20590521  0.62832210  0.54538277     0.13000
H1841       H  0.09116332  0.64878900  0.57127719     0.13000
C1842       C  0.09290081  0.59274346  0.54912749     0.62600
F1843       F  0.23364818  0.67520363  0.55822039    -0.22600
F1844       F  0.20893406  0.68604572  0.58705776    -0.19900
F1845       F  0.19614344  0.71655205  0.55988908    -0.19600
F1846       F  0.10123119  0.56094714  0.55551056    -0.19600
F1847       F  0.08649768  0.59272071  0.52906379    -0.20000
F1848       F  0.06341036  0.60199109  0.55845208    -0.22600
C1849       C  0.16975379  0.83898358  0.55772256    -0.05500
C1850       C  0.14006804  0.83849474  0.56887091     0.00400
C1851       C  0.11648656  0.86493802  0.56680312    -0.08100
C1852       C  0.12511679  0.89252742  0.55491908    -0.05500
C1853       C  0.15588195  0.89389680  0.54480959     0.00400
C1854       C  0.17805455  0.86619483  0.54553916    -0.08000
C1855       C  0.21121073  0.86427788  0.53443442     0.62300
H1856       H  0.18738852  0.81840505  0.55920348     0.13000
H1857       H  0.10837271  0.91389308  0.55428740     0.13000
C1858       C  0.08307189  0.86604373  0.57768762     0.62600
F1859       F  0.21171281  0.83553617  0.52352479    -0.22600
F1860       F  0.23772815  0.86324905  0.54787638    -0.19900
F1861       F  0.21626595  0.89066243  0.52152232    -0.19600
F1862       F  0.08546717  0.88863820  0.59278755    -0.19600
F1863       F  0.07380767  0.83554194  0.58557167    -0.20000
F1864       F  0.05756453  0.87612324  0.56483124    -0.22600
C1865       C  0.13013764  0.62906098  0.30002473    -0.05500
C1866       C  0.10571930  0.60825401  0.30858793     0.00400
C1867       C  0.09438183  0.61467622  0.32786825    -0.08100
C1868       C  0.10646046  0.64290325  0.33755642    -0.05500
C1869       C  0.13034295  0.66440058  0.32892742     0.00400
C1870       C  0.14362823  0.65647498  0.31015082    -0.08000
C1871       C  0.17178852  0.67569611  0.30015221     0.62300
H1872       H  0.13835761  0.62416661  0.28512838     0.13000
H1873       H  0.09674540  0.64883629  0.35197319     0.13000
C1874       C  0.06944722  0.59170898  0.33811756     0.62600
F1875       F  0.19580439  0.65366405  0.29341475    -0.22600
F1876       F  0.18801526  0.69740114  0.31264730    -0.19900
F1877       F  0.15865109  0.69341057  0.28419858    -0.19600
F1878       F  0.06361106  0.60096717  0.35738408    -0.19600
F1879       F  0.08215159  0.55968313  0.33848707    -0.20000
F1880       F  0.52911601  0.61277245  0.32394987    -0.22600
C1881       C  0.14783636  0.85703876  0.31025020    -0.05500
C1882       C  0.12436295  0.84225498  0.32310611     0.00400
C1883       C  0.09189500  0.85657168  0.32502172    -0.08100
C1884       C  0.08402765  0.88539006  0.31406771    -0.05500
C1885       C  0.10737610  0.90059496  0.30142273     0.00400
C1886       C  0.13983722  0.88621668  0.29926173    -0.08000
C1887       C  0.16580749  0.90149076  0.28556763     0.62300
H1888       H  0.17276774  0.84603491  0.30933559     0.13000
H1889       H  0.05914791  0.89648097  0.31525839     0.13000
C1890       C  0.06572429  0.84213408  0.33896110     0.62600
F1891       F  0.19377786  0.88111526  0.28361718    -0.22600
F1892       F  0.17651619  0.93141215  0.29311697    -0.19900
F1893       F  0.15194386  0.90682376  0.26697355    -0.19600
F1894       F  0.07574548  0.84714806  0.35826083    -0.19600
F1895       F  0.06170350  0.80852796  0.33591574    -0.20000
F1896       F  0.53301919  0.85037420  0.32719866    -0.22600
C1897       C  0.17895796  0.64557333  0.45132577    -0.05500
C1898       C  0.15899225  0.61718627  0.44897701     0.00400
C1899       C  0.12901681  0.61885231  0.43754281    -0.08100
C1900       C  0.12210083  0.64816043  0.42673129    -0.05500
C1901       C  0.14385644  0.67560819  0.42757973     0.00400
C1902       C  0.17131189  0.67541672  0.44119843    -0.08000
C1903       C  0.19278287  0.70608745  0.44480076     0.62300
H1904       H  0.20121717  0.64379015  0.46072150     0.13000
H1905       H  0.10092942  0.64914168  0.41648200     0.13000
C1906       C  0.10578901  0.58909902  0.43582963     0.62600
F1907       F  0.21989169  0.69920205  0.45728225    -0.22600
F1908       F  0.17345744  0.73019588  0.45359995    -0.19900
F1909       F  0.20531377  0.71860774  0.42724069    -0.19600
F1910       F  0.09505861  0.57933956  0.45439407    -0.19600
F1911       F  0.12289060  0.56308719  0.42729209    -0.20000
F1912       F  0.07743299  0.59630369  0.42441169    -0.22600
C1913       C  0.16611083  0.84112215  0.43651771    -0.05500
C1914       C  0.14027020  0.84505850  0.42232870     0.00400
C1915       C  0.12190788  0.87528436  0.42111624    -0.08100
C1916       C  0.13350918  0.90231021  0.43208564    -0.05500
C1917       C  0.16109551  0.89900072  0.44505897     0.00400
C1918       C  0.17629839  0.86761893  0.44835597    -0.08000
C1919       C  0.20283433  0.86230020  0.46441470     0.62300
H1920       H  0.17926483  0.81752582  0.43763672     0.13000
H1921       H  0.12137512  0.92634684  0.43021325     0.13000
C1922       C  0.09084358  0.88032494  0.40811739     0.62600
F1923       F  0.21234023  0.82927187  0.46622839    -0.22600
F1924       F  0.18984891  0.87208599  0.48229117    -0.19900
F1925       F  0.23134755  0.88079803  0.46030442    -0.19600
F1926       F  0.07753569  0.85066601  0.40160780    -0.19600
F1927       F  0.09908177  0.89998873  0.39196962    -0.20000
F1928       F  0.06592287  0.89613891  0.41868568    -0.22600
C1929       C  0.39790626  0.66057453  0.31366505    -0.05500
C1930       C  0.41595776  0.66757090  0.33109639     0.00400
C1931       C  0.44109523  0.64463722  0.33783910    -0.08100
C1932       C  0.44756584  0.61597246  0.32668543    -0.05500
C1933       C  0.42992724  0.60923051  0.30914888     0.00400
C1934       C  0.40456384  0.63180896  0.30253308    -0.08000
C1935       C  0.38453579  0.62525764  0.28382404     0.62300
H1936       H  0.37808741  0.67764372  0.30902031     0.13000
H1937       H  0.46732856  0.59883812  0.33129632     0.13000
C1938       C  0.46203630  0.65096567  0.35634160     0.62600
F1939       F  0.36212676  0.65079901  0.27936820    -0.22600
F1940       F  0.36625619  0.59625270  0.28624141    -0.19900
F1941       F  0.40612565  0.62195813  0.26803299    -0.19600
F1942       F  0.44159060  0.65322182  0.37266213    -0.19600
F1943       F  0.47978177  0.68029654  0.35400387    -0.20000
F1944       F  0.48500536  0.62565414  0.36015074    -0.22600
C1945       C  0.45898889  0.89263997  0.32506950    -0.05500
C1946       C  0.44192797  0.90114126  0.30746277     0.00400
C1947       C  0.41445470  0.88136515  0.30110153    -0.08100
C1948       C  0.40455372  0.85382738  0.31286126    -0.05500
C1949       C  0.42160735  0.84535822  0.33051572     0.00400
C1950       C  0.44919915  0.86517889  0.33684096    -0.08000
C1951       C  0.46873071  0.85685094  0.35572124     0.62300
H1952       H  0.48059568  0.90746877  0.32935020     0.13000
H1953       H  0.38325660  0.83871747  0.30843812     0.13000
C1954       C  0.39629304  0.88900683  0.28174460     0.62600
F1955       F  0.98855426  0.87896091  0.35893460    -0.22600
F1956       F  0.48014427  0.82439032  0.35519769    -0.19900
F1957       F  0.44824638  0.86057256  0.37193421    -0.19600
F1958       F  0.41904496  0.88857609  0.26637023    -0.19600
F1959       F  0.38145785  0.92007924  0.28252075    -0.20000
F1960       F  0.37124076  0.86602545  0.27781015    -0.22600
C1961       C  0.36691440  0.65426398  0.43345675    -0.05500
C1962       C  0.34211525  0.67198899  0.42279524     0.00400
C1963       C  0.30771868  0.66335363  0.42481795    -0.08100
C1964       C  0.29929723  0.63672710  0.43748720    -0.05500
C1965       C  0.32408218  0.61798005  0.44774669     0.00400
C1966       C  0.35867766  0.62712660  0.44589101    -0.08000
C1967       C  0.38711019  0.60814194  0.45622265     0.62300
H1968       H  0.39303205  0.66161887  0.43157674     0.13000
H1969       H  0.27302946  0.62964093  0.43901469     0.13000
C1970       C  0.28020522  0.68138391  0.41308137     0.62600
F1971       F  0.41862142  0.61870175  0.44999784    -0.22600
F1972       F  0.38461347  0.57461578  0.45232241    -0.19900
F1973       F  0.38558897  0.61316655  0.47629321    -0.19600
F1974       F  0.28542567  0.67757146  0.39311800    -0.19600
F1975       F  0.28059518  0.71484202  0.41734713    -0.20000
F1976       F  0.24842903  0.66906380  0.41737007    -0.22600
C1977       C  0.37269922  0.86128179  0.43364566    -0.05500
C1978       C  0.34792270  0.84507966  0.42239855     0.00400
C1979       C  0.31385359  0.85564124  0.42346951    -0.08100
C1980       C  0.30601339  0.88258572  0.43544695    -0.05500
C1981       C  0.33056469  0.89930953  0.44666545     0.00400
C1982       C  0.36477546  0.88832098  0.44585161    -0.08000
C1983       C  0.39315231  0.90516201  0.45710264     0.62300
H1984       H  0.39855970  0.85265624  0.43254861     0.13000
H1985       H  0.27996270  0.89092060  0.43578336     0.13000
C1986       C  0.28465726  0.84030742  0.41209606     0.62600
F1987       F  0.42461912  0.89311480  0.45192338    -0.22600
F1988       F  0.38943174  0.89925781  0.47707836    -0.19900
F1989       F  0.39281284  0.93897717  0.45315416    -0.19600
F1990       F  0.26014874  0.82998967  0.42526401    -0.19600
F1991       F  0.29381007  0.81329004  0.40103495    -0.20000
F1992       F  0.27076498  0.86407240  0.39946765    -0.22600
N1993       N  0.88348204  0.31094337  0.37937415    -0.36300
N1994       N  0.90230433  0.26095765  0.35033685    -0.56900
N1995       N  0.88835503  0.20975350  0.37983314    -0.36300
N1996       N  0.86679546  0.25973529  0.40793620    -0.56900
C1997       C  0.88680444  0.33007181  0.36292999     0.27300
C1998       C  0.86631643  0.32920408  0.39261562     0.27300
C1999       C  0.89391743  0.19042831  0.36395252     0.27300
C2000       C  0.87585658  0.18975288  0.39428105     0.27300
C2001       C  0.91367672  0.28861728  0.34091326     0.35900
C2002       C  0.91475537  0.23445546  0.34062977     0.35900
C2003       C  0.86137522  0.28636404  0.41934819     0.35900
C2004       C  0.86456062  0.23269403  0.41984548     0.35900
C2005       C  0.87186602  0.36080842  0.36578098    -0.21600
C2006       C  0.85899620  0.36028069  0.38450697    -0.21600
C2007       C  0.88523619  0.15784235  0.36851376    -0.21600
C2008       C  0.87416882  0.15736675  0.38761611    -0.21600
C2009       C  0.93282643  0.27964854  0.32480645    -0.22700
C2010       C  0.93334556  0.24538182  0.32456767    -0.22600
C2011       C  0.85556692  0.27624261  0.43865195    -0.22700
C2012       C  0.85746128  0.24216504  0.43895449    -0.22600
C2013       C  0.90587343  0.32178721  0.34619733    -0.18000
C2014       C  0.85871746  0.31937192  0.41221117    -0.18000
C2015       C  0.86617082  0.19952114  0.41345405    -0.18000
C2016       C  0.90952449  0.20057772  0.34608950    -0.18000
H2017       H  0.87094709  0.38174283  0.35557336     0.14900
H2018       H  0.84609861  0.38069024  0.39144040     0.14900
H2019       H  0.88744467  0.13635387  0.35921865     0.14900
H2020       H  0.86585392  0.13549176  0.39567562     0.14900
H2021       H  0.94511318  0.29607961  0.31431950     0.13200
H2022       H  0.94633718  0.23024268  0.31396706     0.13200
H2023       H  0.84965944  0.29172229  0.45107338     0.13200
H2024       H  0.85342991  0.22615687  0.45169241     0.13200
H2025       H  0.89601357  0.28906470  0.38216650     0.26500
H2026       H  0.89557403  0.23379141  0.38138793     0.26500
N2027       N  0.64647506  0.20505736  0.37483376    -0.36300
N2028       N  0.64490194  0.25790272  0.40384532    -0.56900
N2029       N  0.64472027  0.30468284  0.37233697    -0.36300
N2030       N  0.64808527  0.25226182  0.34241091    -0.56900
C2031       C  0.65447098  0.18820377  0.39168353     0.27300
C2032       C  0.65364658  0.18502978  0.35952367     0.27300
C2033       C  0.65277142  0.32446728  0.38764148     0.27300
C2034       C  0.65253247  0.32143784  0.35562947     0.27300
C2035       C  0.63878052  0.23162796  0.41573313     0.35900
C2036       C  0.63786369  0.28519323  0.41431473     0.35900
C2037       C  0.63931151  0.22461892  0.33245380     0.35900
C2038       C  0.63813416  0.27857966  0.33112533     0.35900
C2039       C  0.66709795  0.15711990  0.38697016    -0.21600
C2040       C  0.66631215  0.15505683  0.36670712    -0.21600
C2041       C  0.66660813  0.35386521  0.38053662    -0.21600
C2042       C  0.66591175  0.35218488  0.36030333    -0.21600
C2043       C  0.62735642  0.24212873  0.43388615    -0.22700
C2044       C  0.62683417  0.27628865  0.43299424    -0.22600
C2045       C  0.62443876  0.23348237  0.31452818    -0.22700
C2046       C  0.62425116  0.26770912  0.31353724    -0.22600
C2047       C  0.64789046  0.19893302  0.41116210    -0.18000
C2048       C  0.64502135  0.19167846  0.33948971    -0.18000
C2049       C  0.64153052  0.31217250  0.33668900    -0.18000
C2050       C  0.64492492  0.31767910  0.40762593    -0.18000
H2051       H  0.67501178  0.13747602  0.39708619     0.14900
H2052       H  0.67342155  0.13363634  0.35821832     0.14900
H2053       H  0.67507510  0.37491656  0.38897634     0.14900
H2054       H  0.67338205  0.37186087  0.35021904     0.14900
H2055       H  0.62140929  0.22680815  0.44664982     0.13200
H2056       H  0.62014134  0.29264372  0.44486486     0.13200
H2057       H  0.61474751  0.21702683  0.30335290     0.13200
H2058       H  0.61429197  0.28286265  0.30149132     0.13200
H2059       H  0.63266545  0.22700849  0.37393051     0.26500
H2060       H  0.62960092  0.28357987  0.37290884     0.26500
C2061       C  0.67886930  0.43099516  0.45318361     0.42800
N2062       N  0.68572410  0.47189856  0.47234503     0.01600
C2063       C  0.83478289  0.06946707  0.47856782    -0.06200
H2064       H  0.84489267  0.43627770  0.48859636     0.07100
C2065       C  0.77893885  0.44553082  0.54960247    -0.06600
Co2066     Co  0.75488259  0.00739019  0.46356233     0.74200
N2067       N  0.80684689  0.47179214  0.47984789    -0.25800
Co2068     Co  0.81228871  0.00616966  0.50271432     0.74100
C2069       C  0.81198199  0.43100417  0.54597620     0.42900
N2070       N  0.70158928  0.46824601  0.53084719     0.01300
N2071       N  0.80175959  0.46980513  0.52431603     0.01400
N2072       N  0.79685094  0.06856012  0.45349455    -0.46600
H2073       H  0.72639440  0.44389837  0.43543895     0.07100
N2074       N  0.78575607  0.47359221  0.46464247     0.01700
N2075       N  0.80678218  0.04185101  0.52498815     0.01400
C2076       C  0.81244046  0.08340233  0.54459769     0.43000
N2077       N  0.67955920  0.46817105  0.51609795    -0.25200
C2078       C  0.71274811  0.06918106  0.45029402    -0.06100
N2079       N  0.66544302  0.44650955  0.46873772    -0.46300
N2080       N  0.82627765  0.06779672  0.52896574    -0.46500
C2081       C  0.68095398  0.08430451  0.45612748     0.42800
N2082       N  0.79174995  0.04385510  0.46617333     0.01600
N2083       N  0.68508041  0.03942222  0.51825729    -0.25200
N2084       N  0.71135291  0.47379394  0.46004612    -0.25700
N2085       N  0.70675316  0.03838948  0.53312992     0.01300
H2086       H  0.64534157  0.07368103  0.50992512     0.07200
H2087       H  0.76463005  0.06766983  0.56172466     0.07200
N2088       N  0.81362474  0.04363681  0.48096975    -0.25800
N2089       N  0.77521179  0.46952304  0.53591658    -0.25400
N2090       N  0.69087961  0.04205095  0.47473100     0.01600
C2091       C  0.81587241  0.43037444  0.45903024     0.43000
C2092       C  0.66059826  0.44050968  0.51779930    -0.06600
N2093       N  0.78096636  0.03959822  0.53708519    -0.25400
H2094       H  0.76113216  0.44002175  0.56117391     0.07200
N2095       N  0.79024946  0.44938200  0.45198112    -0.46600
H2096       H  0.64075465  0.43298610  0.50775347     0.07200
C2097       C  0.67568701  0.08079503  0.53879609     0.42900
C2098       C  0.70895433  0.44900341  0.44720957    -0.06100
Co2099     Co  0.68771055  0.00459855  0.49603465     0.73800
N2100       N  0.69930751  0.44188880  0.54255729    -0.46300
C2101       C  0.82373355  0.08587985  0.46010918     0.43100
N2102       N  0.66885569  0.06642485  0.47147620    -0.46300
Co2103     Co  0.74484128  0.00278385  0.53498001     0.73900
C2104       C  0.78245463  0.06426262  0.54995650    -0.06600
C2105       C  0.82662862  0.44495470  0.47778683    -0.06200
N2106       N  0.71672153  0.04312012  0.46255275    -0.25700
N2107       N  0.82453436  0.44691978  0.52977436    -0.46500
H2108       H  0.85494952  0.07571517  0.48863557     0.07100
C2109       C  0.66440887  0.06557756  0.52044148    -0.06600
Cl2110     Cl  0.75001082  0.00518336  0.49930996    -0.49600
C2111       C  0.67447894  0.42298876  0.53517377     0.42900
H2112       H  0.72987724  0.07656341  0.43868333     0.07100
N2113       N  0.70211342  0.06272660  0.54566494    -0.46300
N2114       N  0.88129887  0.30314249  0.62383545    -0.36300
N2115       N  0.89585524  0.25135211  0.65283075    -0.56900
N2116       N  0.88180987  0.20359848  0.62331924    -0.36300
N2117       N  0.86803149  0.25533571  0.59355353    -0.56900
C2118       C  0.89614127  0.32040345  0.63848594     0.27300
C2119       C  0.88224508  0.32225894  0.60724327     0.27300
C2120       C  0.89839215  0.18470090  0.63693038     0.27300
C2121       C  0.88151363  0.18678036  0.60629641     0.27300
C2122       C  0.89286167  0.27736452  0.66492318     0.35900
C2123       C  0.89509940  0.22378585  0.66438226     0.35900
C2124       C  0.85374125  0.28281385  0.58530114     0.35900
C2125       C  0.85252638  0.22894802  0.58542168     0.35900
C2126       C  0.90727567  0.35074080  0.63107056    -0.21600
C2127       C  0.89853523  0.35189096  0.61132926    -0.21600
C2128       C  0.90968877  0.15577796  0.62830162    -0.21600
C2129       C  0.89864061  0.15691833  0.60894416    -0.21600
C2130       C  0.89017146  0.26630623  0.68434172    -0.22700
C2131       C  0.89182645  0.23220041  0.68399810    -0.22600
C2132       C  0.82890148  0.27386988  0.57186602    -0.22700
C2133       C  0.82849147  0.23960041  0.57171458    -0.22600
C2134       C  0.89636946  0.31073954  0.65868838    -0.18000
C2135       C  0.86408328  0.31554040  0.58959989    -0.18000
C2136       C  0.86130192  0.19559561  0.58978716    -0.18000
C2137       C  0.89984477  0.19146350  0.65729258    -0.18000
H2138       H  0.91934358  0.37046667  0.63918366     0.14900
H2139       H  0.90236377  0.37274063  0.60132453     0.14900
H2140       H  0.92295949  0.13530326  0.63546458     0.14900
H2141       H  0.90167679  0.13745215  0.59827488     0.14900
H2142       H  0.88805970  0.28124899  0.69740613     0.13200
H2143       H  0.89107614  0.21556220  0.69668533     0.13200
H2144       H  0.81305608  0.29030633  0.56298951     0.13200
H2145       H  0.81222975  0.22430299  0.56271328     0.13200
H2146       H  0.86664684  0.28179624  0.62582063     0.26500
H2147       H  0.86652229  0.22423716  0.62619487     0.26500
N2148       N  0.62993541  0.20209932  0.61990613    -0.36300
N2149       N  0.64030899  0.25417879  0.59122775    -0.56900
N2150       N  0.62562967  0.30278345  0.62145059    -0.36300
N2151       N  0.61790665  0.25044335  0.65076694    -0.56900
C2152       C  0.64388306  0.18450323  0.60521677     0.27300
C2153       C  0.63049952  0.18253498  0.63624430     0.27300
C2154       C  0.63739342  0.32279897  0.60683999     0.27300
C2155       C  0.62535357  0.32068808  0.63819234     0.27300
C2156       C  0.64089986  0.22804411  0.57897931     0.35900
C2157       C  0.63805550  0.28167018  0.57967818     0.35900
C2158       C  0.60779386  0.22261563  0.66034237     0.35900
C2159       C  0.60709912  0.27619745  0.66158234     0.35900
C2160       C  0.65354722  0.15339179  0.61236829    -0.21600
C2161       C  0.64496291  0.15210834  0.63196107    -0.21600
C2162       C  0.64463650  0.35384542  0.61439764    -0.21600
C2163       C  0.63681205  0.35257436  0.63414228    -0.21600
C2164       C  0.63929412  0.23891528  0.55951693    -0.22700
C2165       C  0.63755698  0.27297205  0.55994818    -0.22600
C2166       C  0.59126345  0.23064076  0.67757965    -0.22700
C2167       C  0.59097843  0.26468903  0.67841824    -0.22600
C2168       C  0.64556404  0.19478413  0.58521984    -0.18000
C2169       C  0.61467158  0.19005352  0.65418146    -0.18000
C2170       C  0.61212701  0.30994644  0.65655070    -0.18000
C2171       C  0.63943191  0.31453692  0.58662868    -0.18000
H2172       H  0.66481524  0.13337101  0.60420741     0.14900
H2173       H  0.64819636  0.13088541  0.64180345     0.14900
H2174       H  0.65373956  0.37547272  0.60639945     0.14900
H2175       H  0.63875244  0.37299298  0.64428364     0.14900
H2176       H  0.64004890  0.22392266  0.54641525     0.13200
H2177       H  0.63659375  0.28947490  0.54719286     0.13200
H2178       H  0.58059231  0.21373488  0.68841692     0.13200
H2179       H  0.57984863  0.27929480  0.68995955     0.13200
H2180       H  0.61628132  0.22404324  0.61830846     0.26500
H2181       H  0.61432740  0.27980132  0.61953914     0.26500
C2182       C  0.95249197  0.09140586  0.29682877     0.42800
N2183       N  0.98296574  0.07266512  0.27338992     0.01600
C2184       C  0.97219280  0.43077355  0.21361004    -0.06200
H2185       H  0.99910473  0.39721516  0.28435169     0.07100
C2186       C  0.60040567  0.45927285  0.28695417    -0.06600
Co2187     Co  0.95598065  0.50605628  0.25399810     0.74200
N2188       N  0.98665182  0.44472296  0.27113537    -0.25800
Co2189     Co  0.51849134  0.44606259  0.24905430     0.74100
C2190       C  0.59017370  0.42506966  0.29225525     0.42900
N2191       N  0.57853161  0.04949700  0.26927348     0.01300
N2192       N  0.55567843  0.44522194  0.27065029     0.01400
N2193       N  0.92972013  0.46663680  0.21967475    -0.46600
H2194       H  0.91663367  0.04609130  0.29507912     0.07100
N2195       N  0.96215399  0.46643894  0.27413041     0.01700
N2196       N  0.55783331  0.45082408  0.22805401     0.01400
C2197       C  0.59780596  0.44233878  0.20714503     0.43000
N2198       N  0.55354615  0.07138010  0.26888599    -0.25200
C2199       C  0.92656434  0.05371518  0.22083170    -0.06100
N2200       N  0.97942828  0.09780541  0.28550104    -0.46300
N2201       N  0.56806359  0.42996651  0.21415842    -0.46500
C2202       C  0.93615702  0.08243326  0.20915121     0.42800
N2203       N  0.95564290  0.47135002  0.23166599     0.01600
N2204       N  0.55012338  0.07335380  0.22646794    -0.25200
N2205       N  0.96023871  0.04896334  0.27603963    -0.25700
N2206       N  0.57496776  0.05143629  0.22666560     0.01300
H2207       H  0.54675214  0.12276097  0.21356398     0.07200
H2208       H  0.62850195  0.48632723  0.21850937     0.07200
N2209       N  0.98104947  0.45087195  0.22846910    -0.25800
N2210       N  0.57724823  0.46972940  0.27347832    -0.25400
N2211       N  0.97548009  0.07187859  0.23050422     0.01600
C2212       C  0.95377877  0.42709596  0.29516993     0.43000
C2213       C  0.56084497  0.09627904  0.28090757    -0.06600
N2214       N  0.58012165  0.47467197  0.23098746    -0.25400
H2215       H  0.62247162  0.47314686  0.29133074     0.07200
N2216       N  0.94117998  0.45637609  0.28821608    -0.46600
H2217       H  0.54607755  0.11872594  0.28240714     0.07200
C2218       C  0.59278792  0.08963697  0.20704656     0.42900
C2219       C  0.93936794  0.05884519  0.29054538    -0.06100
Co2220     Co  0.51378348  0.07024073  0.24885652     0.73800
N2221       N  0.60380200  0.05903505  0.28108696    -0.46300
C2222       C  0.93777665  0.44134225  0.20790011     0.43100
N2223       N  0.96652448  0.09321751  0.21610744    -0.46300
Co2224     Co  0.57694168  0.50951753  0.25306175     0.73900
C2225       C  0.60584310  0.47133245  0.21860506    -0.06600
C2226       C  0.98367358  0.41942956  0.28395410    -0.06200
N2227       N  0.95214850  0.04889183  0.23348279    -0.25700
N2228       N  0.56225987  0.41868391  0.28161318    -0.46500
H2229       H  0.98772254  0.41101687  0.20805336     0.07100
C2230       C  0.55922735  0.09885404  0.21444572    -0.06600
Cl2231     Cl  0.51506594  0.50673887  0.25147852    -0.49600
C2232       C  0.59374207  0.08815993  0.28914354     0.42900
H2233       H  0.90380917  0.03892241  0.22001001     0.07100
N2234       N  0.60035286  0.05999034  0.21523413    -0.46300
C2235       C  0.93054852  0.30141308  0.96330577     0.42800
N2236       N  0.97371933  0.28623966  0.98064963     0.01600
C2237       C  0.57535824  0.14893143  0.97791039    -0.06200
H2238       H  0.93661019  0.12368747  0.98531773     0.07100
C2239       C  0.95745495  0.17812373  0.05010595    -0.06600
Co2240     Co  0.51712374  0.23351762  0.96519135     0.74200
N2241       N  0.96921554  0.16527311  0.97887896    -0.25800
Co2242     Co  0.51147260  0.17064863  0.00059620     0.74100
C2243       C  0.93602999  0.15177397  0.04259059     0.42900
N2244       N  0.98236186  0.25666354  0.03795454     0.01300
N2245       N  0.97614296  0.16148370  0.02224201     0.01400
N2246       N  0.57978766  0.19106399  0.95558136    -0.46600
H2247       H  0.93670254  0.25790799  0.94215892     0.07100
N2248       N  0.96746785  0.18983716  0.96579212     0.01700
N2249       N  0.54733355  0.16722607  0.02350329     0.01400
C2250       C  0.58484386  0.15106521  0.04471104     0.43000
N2251       N  0.98068106  0.28146318  0.02501597    -0.25200
C2252       C  0.58077387  0.27384062  0.95422112    -0.06100
N2253       N  0.95021772  0.30983732  0.97889794    -0.46300
N2254       N  0.56853989  0.14238086  0.02788473    -0.46500
C2255       C  0.59786842  0.30339608  0.96151103     0.42800
N2256       N  0.55266739  0.19461213  0.96668176     0.01600
N2257       N  0.55564985  0.28886281  0.02363084    -0.25200
N2258       N  0.97077502  0.26352697  0.96688182    -0.25700
N2259       N  0.55444058  0.26423033  0.03662447     0.01300
H2260       H  0.59105309  0.32874314  0.01907733     0.07200
H2261       H  0.57721284  0.19794144  0.06299685     0.07200
N2262       N  0.54970116  0.17034368  0.97990155    -0.25800
N2263       N  0.98077032  0.18310902  0.03637391    -0.25400
N2264       N  0.55562946  0.29196063  0.98004287     0.01600
C2265       C  0.92329058  0.16087861  0.96028527     0.43000
C2266       C  0.95574037  0.30201165  0.03055208    -0.06600
N2267       N  0.54905820  0.19130278  0.03638131    -0.25400
H2268       H  0.95572160  0.19147787  0.06367159     0.07200
N2269       N  0.94035703  0.18810699  0.95429066    -0.46600
H2270       H  0.94868738  0.32475593  0.02287792     0.07200
C2271       C  0.59996730  0.29021851  0.04438957     0.42900
C2272       C  0.94441679  0.27119290  0.95518677    -0.06100
Co2273     Co  0.51847294  0.29337425  0.00157082     0.73800
N2274       N  0.95977068  0.25904248  0.05217926    -0.46300
C2275       C  0.59564375  0.16318256  0.96213909     0.43100
N2276       N  0.58083176  0.31325520  0.97758413    -0.46300
Co2277     Co  0.51514996  0.23034824  0.03664006     0.73900
C2278       C  0.57247391  0.18378172  0.04992665    -0.06600
C2279       C  0.94221234  0.14565593  0.97658536    -0.06200
N2280       N  0.55517040  0.26871177  0.96658555    -0.25700
N2281       N  0.94920200  0.14248734  0.02518006    -0.46500
H2282       H  0.57963582  0.12664284  0.98670098     0.07100
C2283       C  0.58357075  0.30677878  0.02728960    -0.06600
Cl2284     Cl  0.51547287  0.23200608  0.00096840    -0.49600
C2285       C  0.94178670  0.28707331  0.04877059     0.42900
H2286       H  0.58544033  0.25973472  0.94107734     0.07100
N2287       N  0.58023501  0.26414718  0.04909684    -0.46300
N2288       N  0.71195007  0.38883312  0.88225538    -0.36300
N2289       N  0.76297553  0.39845614  0.85237957    -0.56900
N2290       N  0.81480719  0.38022142  0.88153206    -0.36300
N2291       N  0.76418535  0.36939732  0.91073278    -0.56900
C2292       C  0.69269391  0.39171285  0.86571433     0.27300
C2293       C  0.69325765  0.37256638  0.89595056     0.27300
C2294       C  0.83150556  0.37678391  0.86434779     0.27300
C2295       C  0.83250339  0.36320166  0.89563875     0.27300
C2296       C  0.73647977  0.41330970  0.84300973     0.35900
C2297       C  0.79110030  0.40714309  0.84233548     0.35900
C2298       C  0.73690232  0.36886927  0.92249933     0.35900
C2299       C  0.79158750  0.36799450  0.92273107     0.35900
C2300       C  0.66119539  0.37773717  0.86903209    -0.21600
C2301       C  0.66153993  0.36565944  0.88811292    -0.21600
C2302       C  0.85992002  0.35706201  0.86755587    -0.21600
C2303       C  0.86059528  0.34859156  0.88730123    -0.21600
C2304       C  0.74773069  0.43142620  0.82682910    -0.22700
C2305       C  0.78240218  0.42781565  0.82651784    -0.22600
C2306       C  0.74687692  0.36735519  0.94213336    -0.22700
C2307       C  0.78161650  0.36746052  0.94230286    -0.22600
C2308       C  0.70218711  0.40837461  0.84810948    -0.18000
C2309       C  0.70353599  0.36493952  0.91556778    -0.18000
C2310       C  0.82477599  0.36217492  0.91602553    -0.18000
C2311       C  0.82384882  0.39407589  0.84644572    -0.18000
H2312       H  0.64008521  0.37652166  0.85879583     0.14900
H2313       H  0.64069477  0.35333323  0.89540678     0.14900
H2314       H  0.87867746  0.35011672  0.85684118     0.14900
H2315       H  0.87979750  0.33367268  0.89470562     0.14900
H2316       H  0.73251982  0.44547382  0.81627524     0.13200
H2317       H  0.79915477  0.43868592  0.81567711     0.13200
H2318       H  0.73082347  0.36545057  0.95494481     0.13200
H2319       H  0.79758561  0.36560457  0.95532173     0.13200
H2320       H  0.73522839  0.40015837  0.88458520     0.26500
H2321       H  0.79505926  0.39674683  0.88396675     0.26500
N2322       N  0.70420508  0.10408046  0.87574978    -0.36300
N2323       N  0.75536024  0.10561439  0.84470214    -0.56900
N2324       N  0.80627799  0.10882400  0.87491520    -0.36300
N2325       N  0.75545636  0.10749785  0.90520938    -0.56900
C2326       C  0.68624897  0.11294954  0.85946110     0.27300
C2327       C  0.68625703  0.11389403  0.89154738     0.27300
C2328       C  0.82455326  0.11468134  0.85847509     0.27300
C2329       C  0.82372291  0.12154520  0.89026178     0.27300
C2330       C  0.72769594  0.09613684  0.83449539     0.35900
C2331       C  0.78240103  0.09559271  0.83431187     0.35900
C2332       C  0.72913462  0.10085627  0.91703473     0.35900
C2333       C  0.78336016  0.10606153  0.91661546     0.35900
C2334       C  0.65636829  0.12818736  0.86488954    -0.21600
C2335       C  0.65653447  0.12914490  0.88517273    -0.21600
C2336       C  0.85421746  0.13091754  0.86335828    -0.21600
C2337       C  0.85347954  0.13574194  0.88342162    -0.21600
C2338       C  0.73707109  0.08017192  0.81741595    -0.22700
C2339       C  0.77192546  0.07966396  0.81735677    -0.22600
C2340       C  0.74039523  0.09397738  0.93609560    -0.22700
C2341       C  0.77502260  0.09722614  0.93582290    -0.22600
C2342       C  0.69439259  0.10387333  0.84006323    -0.18000
C2343       C  0.69561893  0.10820466  0.91152000    -0.18000
C2344       C  0.81486768  0.11805131  0.91038514    -0.18000
C2345       C  0.81611023  0.10300029  0.83955783    -0.18000
H2346       H  0.63635134  0.13723883  0.85521296     0.14900
H2347       H  0.63670721  0.13930049  0.89419075     0.14900
H2348       H  0.87431677  0.13831669  0.85349983     0.14900
H2349       H  0.87311986  0.14749375  0.89205388     0.14900
H2350       H  0.72054835  0.07032350  0.80612643     0.13200
H2351       H  0.78772086  0.06945304  0.80598376     0.13200
H2352       H  0.72511012  0.08942212  0.94902246     0.13200
H2353       H  0.79183163  0.09552493  0.94849197     0.13200
H2354       H  0.72545686  0.08875190  0.87601157     0.26500
H2355       H  0.78533311  0.09330157  0.87581001     0.26500
C2356       C  0.94147841  0.41688847  0.70655635     0.42800
N2357       N  0.95061615  0.45997009  0.72361245     0.01600
C2358       C  0.59007456  0.06043376  0.72087854    -0.06200
H2359       H  0.60949074  0.43177309  0.73393811     0.07100
C2360       C  0.55586756  0.44724819  0.79942472    -0.06600
Co2361     Co  0.50638263  0.49825985  0.70992213     0.74200
N2362       N  0.56841478  0.46433247  0.72607061    -0.25800
Co2363     Co  0.56619201  0.50118032  0.74761295     0.74100
C2364       C  0.59025256  0.43683680  0.79410538     0.42900
N2365       N  0.97032088  0.46440937  0.78208234     0.01300
N2366       N  0.56779987  0.46593781  0.77032349     0.01400
N2367       N  0.55151203  0.05751838  0.69632256    -0.46600
H2368       H  0.98688238  0.42744422  0.68650216     0.07100
N2369       N  0.54584208  0.46418897  0.71168019     0.01700
N2370       N  0.56665179  0.03865575  0.76749205     0.01400
C2371       C  0.58246416  0.07621196  0.78790134     0.43000
N2372       N  0.94804785  0.46280572  0.76750305    -0.25200
C2373       C  0.97216663  0.06201749  0.69694383    -0.06100
N2374       N  0.92949252  0.43468195  0.72164915    -0.46300
N2375       N  0.59165752  0.05911267  0.77181323    -0.46500
C2376       C  0.94214746  0.07892653  0.70388062     0.42800
N2377       N  0.54690170  0.03373315  0.70961689     0.01600
N2378       N  0.94637213  0.03408107  0.76543351    -0.25200
N2379       N  0.97506471  0.45987801  0.71050134    -0.25700
N2380       N  0.96823006  0.03473133  0.78026133     0.01300
H2381       H  0.89701221  0.05557886  0.76112554     0.07200
H2382       H  0.53282244  0.07128672  0.80514780     0.07200
N2383       N  0.56925127  0.03474580  0.72404601    -0.25800
N2384       N  0.54387396  0.46485228  0.78378333    -0.25400
N2385       N  0.95044018  0.03527185  0.72168684     0.01600
C2386       C  0.57692851  0.42122157  0.70590726     0.43000
C2387       C  0.92376819  0.44135737  0.77272109    -0.06600
N2388       N  0.54123164  0.04112895  0.77981297    -0.25400
H2389       H  0.54414057  0.44610400  0.81377176     0.07200
N2390       N  0.55018448  0.43939756  0.69950000    -0.46600
H2391       H  0.90013597  0.43851333  0.76478639     0.07200
C2392       C  0.92774078  0.06762151  0.78888413     0.42900
C2393       C  0.97113748  0.43369904  0.69887212    -0.06100
Co2394     Co  0.94765296  0.49754015  0.74419712     0.72600
N2395       N  0.96182843  0.44556225  0.79743114    -0.46300
C2396       C  0.57832204  0.07577855  0.70222416     0.43100
N2397       N  0.92959939  0.06091891  0.71913168    -0.46300
Co2398     Co  0.50227657  0.49778779  0.78204784     0.73900
C2399       C  0.54810682  0.06530512  0.79256276    -0.06600
C2400       C  0.58926384  0.43812631  0.72381024    -0.06200
N2401       N  0.97551666  0.03559229  0.70897908    -0.25700
N2402       N  0.59562944  0.45000769  0.77599165    -0.46500
H2403       H  0.61009000  0.06695516  0.73091672     0.07100
C2404       C  0.92056954  0.05451619  0.76934595    -0.06600
Cl2405     Cl  0.50428872  0.49771503  0.74598741    -0.49600
C2406       C  0.93255329  0.43008996  0.79282411     0.42900
H2407       H  0.98911696  0.06899222  0.68516231     0.07100
N2408       N  0.95775890  0.05410737  0.79465967    -0.46300
N2409       N  0.76518539  0.12452358  0.15467657    -0.36300
N2410       N  0.81167953  0.12865019  0.12169616    -0.56900
N2411       N  0.75864861  0.11485624  0.09270268    -0.36300
N2412       N  0.71354531  0.10624542  0.12520035    -0.56900
C2413       C  0.79461673  0.11429324  0.16327117     0.27300
C2414       C  0.73960926  0.11271722  0.16593571     0.27300
C2415       C  0.78147750  0.13010359  0.08100044     0.27300
C2416       C  0.72835492  0.11681972  0.08327533     0.27300
C2417       C  0.83414175  0.13099938  0.13678226     0.35900
C2418       C  0.82945858  0.13404171  0.10503207     0.35900
C2419       C  0.69664512  0.09973049  0.14199387     0.35900
C2420       C  0.69496238  0.09300139  0.11046047     0.35900
C2421       C  0.78766460  0.09514858  0.17987267    -0.21600
C2422       C  0.75302103  0.09339446  0.18124361    -0.21600
C2423       C  0.76600157  0.14061763  0.06358951    -0.21600
C2424       C  0.73224226  0.13320054  0.06528348    -0.21600
C2425       C  0.86593641  0.13883931  0.12972531    -0.22700
C2426       C  0.86308998  0.14041913  0.10964275    -0.22600
C2427       C  0.66849970  0.08037420  0.13817941    -0.22700
C2428       C  0.66751838  0.07594260  0.11815167    -0.22600
C2429       C  0.82760169  0.12151019  0.15648421    -0.18000
C2430       C  0.70501235  0.11362659  0.16034746    -0.18000
C2431       C  0.69769160  0.10352614  0.09054257    -0.18000
C2432       C  0.81583664  0.13503020  0.08566161    -0.18000
H2433       H  0.80567774  0.08220502  0.18935434     0.14900
H2434       H  0.73964181  0.07702147  0.19125817     0.14900
H2435       H  0.77757995  0.15326755  0.05118918     0.14900
H2436       H  0.71292575  0.13947654  0.05447498     0.14900
H2437       H  0.88906384  0.14203277  0.13813897     0.13200
H2438       H  0.88355086  0.14586705  0.09961343     0.13200
H2439       H  0.64995939  0.07148076  0.14863917     0.13200
H2440       H  0.64744444  0.06392779  0.10999692     0.13200
H2441       H  0.76229046  0.13996845  0.14227165     0.26500
H2442       H  0.76405043  0.10165840  0.10568662     0.26500
N2443       N  0.76968171  0.34762243  0.09803356    -0.36300
N2444       N  0.82020828  0.36586061  0.12713969    -0.56900
N2445       N  0.76686305  0.38885304  0.15344464    -0.36300
N2446       N  0.71623771  0.36714348  0.12530860    -0.56900
C2447       C  0.79715688  0.33196259  0.09085938     0.27300
C2448       C  0.74224238  0.33379929  0.08948197     0.27300
C2449       C  0.79424540  0.39391478  0.16512136     0.27300
C2450       C  0.73884760  0.39281125  0.16457724     0.27300
C2451       C  0.84099260  0.35730561  0.11230710     0.35900
C2452       C  0.83979215  0.38080655  0.14079446     0.35900
C2453       C  0.69731912  0.36119975  0.10904944     0.35900
C2454       C  0.69542542  0.38140531  0.13847224     0.35900
C2455       C  0.78708504  0.30821370  0.07745495    -0.21600
C2456       C  0.75238920  0.30946834  0.07651304    -0.21600
C2457       C  0.78354534  0.40165940  0.18393392    -0.21600
C2458       C  0.74865739  0.40104423  0.18357702    -0.21600
C2459       C  0.87395583  0.36630388  0.11669089    -0.22700
C2460       C  0.87322253  0.38120688  0.13468127    -0.22600
C2461       C  0.66428210  0.37144159  0.11194081    -0.22700
C2462       C  0.66305088  0.38412580  0.13056456    -0.22600
C2463       C  0.83113375  0.33952484  0.09541189    -0.18000
C2464       C  0.70835450  0.34339016  0.09249134    -0.18000
C2465       C  0.70473509  0.39106857  0.15779786    -0.18000
C2466       C  0.82853817  0.39325089  0.15905072    -0.18000
H2467       H  0.80309850  0.29183173  0.06912282     0.14900
H2468       H  0.73645785  0.29417506  0.06731392     0.14900
H2469       H  0.79924396  0.40757101  0.19655650     0.14900
H2470       H  0.73237090  0.40644027  0.19586928     0.14900
H2471       H  0.89628237  0.36237514  0.10790355     0.13200
H2472       H  0.89497909  0.39108816  0.14238888     0.13200
H2473       H  0.64308675  0.36936581  0.10182202     0.13200
H2474       H  0.64073371  0.39400261  0.13750985     0.13200
H2475       H  0.76967699  0.36881551  0.10659342     0.26500
H2476       H  0.76743605  0.38607114  0.13831202     0.26500
C2477       C  0.64514167  0.07077704  0.83052087    -0.05500
C2478       C  0.66583640  0.09801107  0.82623460     0.00400
C2479       C  0.65734755  0.11988483  0.81041298    -0.08100
C2480       C  0.62921067  0.11221707  0.79846272    -0.05500
C2481       C  0.60839710  0.08489694  0.80276275     0.00400
C2482       C  0.61588815  0.06422263  0.81946388    -0.08000
C2483       C  0.59332041  0.03569272  0.82605414     0.62300
H2484       H  0.65179812  0.05513975  0.84312818     0.13000
H2485       H  0.62310510  0.12760893  0.78566110     0.13000
C2486       C  0.67705346  0.15163169  0.80668200     0.62600
F2487       F  0.60775519  0.01711126  0.84127793    -0.22600
F2488       F  0.58728261  0.01456011  0.81059958    -0.19900
F2489       F  0.56312141  0.04816290  0.83288613    -0.19600
F2490       F  0.71015843  0.14431103  0.80207281    -0.19600
F2491       F  0.67659125  0.17084223  0.82341092    -0.20000
F2492       F  0.66328426  0.17023851  0.79123371    -0.22600
C2493       C  0.86266188  0.06600122  0.83018827    -0.05500
C2494       C  0.84421472  0.09493269  0.82594566     0.00400
C2495       C  0.85339675  0.11534020  0.80966641    -0.08100
C2496       C  0.88144642  0.10597349  0.79821876    -0.05500
C2497       C  0.90029248  0.07708431  0.80263371     0.00400
C2498       C  0.89017706  0.05633281  0.81864109    -0.08000
C2499       C  0.90747811  0.02356012  0.82326769     0.62300
H2500       H  0.85506535  0.05086218  0.84273593     0.13000
H2501       H  0.88878201  0.12104890  0.78559849     0.13000
C2502       C  0.83383166  0.14684699  0.80458876     0.62600
F2503       F  0.89031627  0.00518330  0.83741807    -0.22600
F2504       F  0.93976808  0.02948103  0.83034749    -0.19900
F2505       F  0.90892088  0.00473243  0.80639600    -0.19600
F2506       F  0.83378535  0.16762125  0.82063627    -0.19600
F2507       F  0.80085069  0.13913306  0.79960632    -0.20000
F2508       F  0.84786239  0.16392954  0.78879661    -0.22600
C2509       C  0.66971905  0.39794197  0.81724811    -0.05500
C2510       C  0.67476847  0.41790736  0.83374707     0.00400
C2511       C  0.65224321  0.44454510  0.83717364    -0.08100
C2512       C  0.62425500  0.44933459  0.82433381    -0.05500
C2513       C  0.61886652  0.42903511  0.80791893     0.00400
C2514       C  0.64229094  0.40321855  0.80414114    -0.08000
C2515       C  0.63765328  0.38053410  0.78670052     0.62300
H2516       H  0.68720922  0.37766013  0.81497378     0.13000
H2517       H  0.60667842  0.46937243  0.82683716     0.13000
C2518       C  0.65853449  0.46830352  0.85397985     0.62600
F2519       F  0.66301059  0.35686068  0.78580865    -0.22600
F2520       F  0.63825644  0.39894493  0.76935971    -0.19900
F2521       F  0.60698277  0.36429509  0.78821366    -0.19600
F2522       F  0.63581563  0.49435630  0.85355454    -0.19600
F2523       F  0.69073660  0.48141957  0.85251980    -0.20000
F2524       F  0.65544833  0.45196300  0.87194315    -0.22600
C2525       C  0.88160633  0.41545020  0.83990188    -0.05500
C2526       C  0.85235021  0.40022017  0.83234694     0.00400
C2527       C  0.85186914  0.39090439  0.81223283    -0.08100
C2528       C  0.87842612  0.40149234  0.80001473    -0.05500
C2529       C  0.90729591  0.41760360  0.80745243     0.00400
C2530       C  0.91010268  0.42201769  0.82819517    -0.08000
C2531       C  0.94279056  0.43229140  0.83838170     0.62300
H2532       H  0.88218137  0.42168348  0.85538672     0.13000
H2533       H  0.87699300  0.39590275  0.78444943     0.13000
C2534       C  0.82485804  0.36932913  0.80288424     0.62600
F2535       F  0.94057749  0.42948240  0.85872506    -0.22600
F2536       F  0.95047088  0.46485308  0.83378609    -0.19900
F2537       F  0.96893820  0.41191555  0.83255855    -0.19600
F2538       F  0.80512700  0.38853551  0.79018566    -0.19600
F2539       F  0.80432256  0.35391137  0.81660815    -0.20000
F2540       F  0.84015072  0.34461272  0.79212322    -0.22600
C2541       C  0.63271631  0.11025870  0.04807440    -0.05500
C2542       C  0.60811672  0.13019539  0.05701388     0.00400
C2543       C  0.60968708  0.13418447  0.07770090    -0.08100
C2544       C  0.63978016  0.12637332  0.08759927    -0.05500
C2545       C  0.66564115  0.10815190  0.07871682     0.00400
C2546       C  0.66053233  0.09725186  0.05902998    -0.08000
C2547       C  0.68332867  0.07240659  0.04901239     0.62300
H2548       H  0.63064667  0.10534801  0.03243498     0.13000
H2549       H  0.64271302  0.13410559  0.10272319     0.13000
C2550       C  0.58006093  0.14483888  0.09023586     0.62600
F2551       F  0.66393024  0.04630363  0.04228933    -0.22600
F2552       F  0.70788493  0.05925531  0.06152265    -0.19900
F2553       F  0.69894815  0.08748261  0.03305878    -0.19600
F2554       F  0.54973819  0.14518105  0.07992711    -0.19600
F2555       F  0.58620817  0.17595437  0.09784276    -0.20000
F2556       F  0.57636581  0.12241476  0.10572895    -0.22600
C2557       C  0.88230052  0.17534143  0.05403360    -0.05500
C2558       C  0.90057191  0.14695807  0.04860994     0.00400
C2559       C  0.88630492  0.11511152  0.05153149    -0.08100
C2560       C  0.85566157  0.11266928  0.06176572    -0.05500
C2561       C  0.83989216  0.14085636  0.06941160     0.00400
C2562       C  0.85235399  0.17290924  0.06487184    -0.08000
C2563       C  0.83496286  0.20414717  0.07213162     0.62300
H2564       H  0.89265105  0.19955894  0.05054252     0.13000
H2565       H  0.84527519  0.08849065  0.06543367     0.13000
C2566       C  0.90426684  0.08386573  0.04505018     0.62600
F2567       F  0.83291087  0.20361463  0.09247886    -0.22600
F2568       F  0.80272684  0.20629545  0.06423423    -0.19900
F2569       F  0.85217447  0.23261222  0.06658634    -0.19600
F2570       F  0.93553605  0.08143788  0.05426862    -0.19600
F2571       F  0.90853747  0.08496748  0.02483480    -0.20000
F2572       F  0.88604975  0.05550078  0.04971561    -0.22600
C2573       C  0.64603780  0.33094570  0.05017083    -0.05500
C2574       C  0.62891143  0.30217634  0.05666472     0.00400
C2575       C  0.63932343  0.28654217  0.07483536    -0.08100
C2576       C  0.66591789  0.30066932  0.08561876    -0.05500
C2577       C  0.68202248  0.32962240  0.07925707     0.00400
C2578       C  0.67220327  0.34523726  0.06133873    -0.08000
C2579       C  0.68894923  0.37712748  0.05433832     0.62300
H2580       H  0.63866021  0.34261691  0.03633263     0.13000
H2581       H  0.67432214  0.28951557  0.09946534     0.13000
C2582       C  0.62314973  0.25518541  0.08320858     0.62600
F2583       F  0.67397212  0.38970879  0.03724652    -0.22600
F2584       F  0.72271511  0.37122621  0.05059084    -0.19900
F2585       F  0.68640035  0.40096587  0.06871647    -0.19600
F2586       F  0.62738361  0.22963320  0.07010086    -0.19600
F2587       F  0.58918412  0.26060593  0.08667782    -0.20000
F2588       F  0.63766936  0.24510938  0.10099053    -0.22600
C2589       C  0.89410872  0.32659207  0.05388204    -0.05500
C2590       C  0.91323919  0.29942827  0.06124598     0.00400
C2591       C  0.90453818  0.28551994  0.08011588    -0.08100
C2592       C  0.87692947  0.29888597  0.09027908    -0.05500
C2593       C  0.85829244  0.32577948  0.08278300     0.00400
C2594       C  0.86694137  0.34018379  0.06439579    -0.08000
C2595       C  0.84749167  0.36979535  0.05595344     0.62300
H2596       H  0.90024784  0.33719399  0.03962780     0.13000
H2597       H  0.86957379  0.28865226  0.10447381     0.13000
C2598       C  0.92352140  0.25678896  0.08993570     0.62600
F2599       F  0.86295993  0.38313300  0.03940500    -0.22600
F2600       F  0.84539762  0.39451508  0.06983672    -0.19900
F2601       F  0.81522460  0.36006111  0.05063969    -0.19600
F2602       F  0.95751615  0.26420958  0.09160629    -0.19600
F2603       F  0.91916064  0.22865998  0.07898593    -0.20000
F2604       F  0.91181031  0.24963510  0.10873507    -0.22600
C2605       C  0.64753789  0.30078219  0.94007417    -0.05500
C2606       C  0.62695916  0.32040582  0.95199395     0.00400
C2607       C  0.63366430  0.35500213  0.95326899    -0.08100
C2608       C  0.65934028  0.36874105  0.94135664    -0.05500
C2609       C  0.67874387  0.34888500  0.92894575     0.00400
C2610       C  0.67372681  0.31418452  0.92878981    -0.08000
C2611       C  0.69566009  0.29134392  0.91658536     0.62300
H2612       H  0.64261976  0.27459728  0.93927598     0.13000
H2613       H  0.66428991  0.39518395  0.94139173     0.13000
C2614       C  0.61353549  0.37755218  0.96654639     0.62600
F2615       F  0.72922921  0.29503586  0.92195198    -0.22600
F2616       F  0.69183347  0.29896850  0.89674930    -0.19900
F2617       F  0.68722838  0.25822904  0.91935581    -0.19600
F2618       F  0.61789495  0.36754516  0.98602225    -0.19600
F2619       F  0.57960784  0.37632217  0.96148215    -0.20000
F2620       F  0.62386340  0.41031413  0.96493142    -0.22600
C2621       C  0.90840421  0.35036501  0.94436565    -0.05500
C2622       C  0.90195129  0.32058025  0.95466308     0.00400
C2623       C  0.86904078  0.30702389  0.95425484    -0.08100
C2624       C  0.84476507  0.32118144  0.94140942    -0.05500
C2625       C  0.85126670  0.35043903  0.93050993     0.00400
C2626       C  0.88304137  0.36645509  0.93295671    -0.08000
C2627       C  0.89159140  0.39999207  0.92372344     0.62300
H2628       H  0.93356489  0.36096068  0.94505393     0.13000
H2629       H  0.82037068  0.30932806  0.93972363     0.13000
C2630       C  0.85934413  0.27858335  0.96801030     0.62600
F2631       F  0.90672047  0.41982621  0.93774648    -0.22600
F2632       F  0.86344364  0.41685323  0.91658301    -0.19900
F2633       F  0.91397547  0.39556701  0.90843401    -0.19600
F2634       F  0.86611058  0.28748959  0.98727455    -0.19600
F2635       F  0.87760075  0.25040973  0.96374000    -0.20000
F2636       F  0.82528798  0.27103203  0.96652448    -0.22600
C2637       C  0.67848753  0.14879964  0.93636142    -0.05500
C2638       C  0.67192653  0.11852099  0.92713978     0.00400
C2639       C  0.64246244  0.10037808  0.93191584    -0.08100
C2640       C  0.61832978  0.11525273  0.94410180    -0.05500
C2641       C  0.62360800  0.14698516  0.95180384     0.00400
C2642       C  0.65498858  0.16302248  0.94906957    -0.08000
C2643       C  0.66353052  0.19487318  0.95959499     0.62300
H2644       H  0.70176837  0.16176107  0.93297910     0.13000
H2645       H  0.59470825  0.10270942  0.94717340     0.13000
C2646       C  0.63703067  0.06546133  0.92445101     0.62600
F2647       F  0.69691524  0.20409058  0.95687027    -0.22600
F2648       F  0.65827620  0.19080693  0.97963656    -0.19900
F2649       F  0.64306091  0.22007533  0.95245737    -0.19600
F2650       F  0.60761204  0.05156702  0.93176807    -0.19600
F2651       F  0.66389595  0.04555931  0.93042018    -0.20000
F2652       F  0.63487681  0.06569293  0.90410230    -0.22600
C2653       C  0.86561817  0.16744887  0.94739345    -0.05500
C2654       C  0.89435915  0.14725738  0.94942766     0.00400
C2655       C  0.89615049  0.11673562  0.93939306    -0.08100
C2656       C  0.86825435  0.10699112  0.92801198    -0.05500
C2657       C  0.84007491  0.12769576  0.92543345     0.00400
C2658       C  0.83841224  0.15851546  0.93517337    -0.08000
C2659       C  0.80905305  0.18253383  0.93192042     0.62300
H2660       H  0.86516727  0.19082520  0.95501954     0.13000
H2661       H  0.86886591  0.08386351  0.92006746     0.13000
C2662       C  0.92808789  0.09576274  0.93937844     0.62600
F2663       F  0.77941399  0.16863029  0.93877441    -0.22600
F2664       F  0.80545328  0.18996499  0.91202476    -0.19900
F2665       F  0.81404117  0.21205715  0.94172264    -0.19600
F2666       F  0.93421454  0.08266698  0.95801446    -0.19600
F2667       F  0.95524097  0.11509472  0.93358559    -0.20000
F2668       F  0.92551618  0.06955939  0.92646435    -0.22600
C2669       C  0.87514180  0.38291493  0.18314379    -0.05500
C2670       C  0.85515075  0.40604307  0.17258315     0.00400
C2671       C  0.86368676  0.44009018  0.17277218    -0.08100
C2672       C  0.89211695  0.44987171  0.18372988    -0.05500
C2673       C  0.91231386  0.42692831  0.19435695     0.00400
C2674       C  0.90369507  0.39273518  0.19417999    -0.08000
C2675       C  0.92358372  0.36678994  0.20590611     0.62300
H2676       H  0.86837344  0.35691512  0.18233764     0.13000
H2677       H  0.89826111  0.47595755  0.18455612     0.13000
C2678       C  0.84253660  0.46604458  0.16173945     0.62600
F2679       F  0.90861772  0.33577803  0.20507002    -0.22600
F2680       F  0.92551882  0.37565032  0.22551483    -0.19900
F2681       F  0.95572471  0.36401949  0.19830777    -0.19600
F2682       F  0.81087512  0.46785722  0.17011910    -0.19600
F2683       F  0.83908937  0.45772496  0.14211189    -0.20000
F2684       F  0.85705184  0.49728632  0.16246771    -0.22600
C2685       C  0.63150229  0.39431277  0.19468244    -0.05500
C2686       C  0.62131243  0.42769995  0.19250685     0.00400
C2687       C  0.63838016  0.44835188  0.17857118    -0.08100
C2688       C  0.66672409  0.43590534  0.16875816    -0.05500
C2689       C  0.67701115  0.40280820  0.17094328     0.00400
C2690       C  0.65877827  0.38128766  0.18374646    -0.08000
C2691       C  0.66833168  0.34487103  0.18577525     0.62300
H2692       H  0.61859923  0.37877752  0.20539456     0.13000
H2693       H  0.68023040  0.45188215  0.15849609     0.13000
C2694       C  0.62729695  0.48348095  0.17308151     0.62600
F2695       F  0.64784300  0.32816134  0.19905774    -0.22600
F2696       F  0.70143361  0.34186266  0.19230660    -0.19900
F2697       F  0.66513285  0.32976853  0.16767411    -0.19600
F2698       F  0.64901637  0.50595960  0.18174748    -0.19600
F2699       F  0.59453427  0.49019863  0.17874669    -0.20000
F2700       F  0.62849266  0.48792404  0.15280122    -0.22600
C2701       C  0.89469163  0.12521257  0.19763869    -0.05500
C2702       C  0.91436743  0.09715325  0.19339372     0.00400
C2703       C  0.90712300  0.07894407  0.17615955    -0.08100
C2704       C  0.87810134  0.08707940  0.16495359    -0.05500
C2705       C  0.85743867  0.11414349  0.16965565     0.00400
C2706       C  0.86684010  0.13470280  0.18556017    -0.08000
C2707       C  0.84795599  0.16678901  0.18932565     0.62300
H2708       H  0.90057832  0.13896708  0.21083076     0.13000
H2709       H  0.87144816  0.07260431  0.15216128     0.13000
C2710       C  0.93086305  0.05191929  0.16920241     0.62600
F2711       F  0.86255707  0.18442079  0.20454037    -0.22600
F2712       F  0.81480465  0.16012562  0.19425177    -0.19900
F2713       F  0.84838818  0.18663561  0.17247323    -0.19600
F2714       F  0.93680812  0.52361643  0.17881575    -0.19600
F2715       F  0.96271288  0.06527286  0.16651840    -0.20000
F2716       F  0.92373354  0.53920892  0.14786098    -0.22600
C2717       C  0.61558528  0.12395852  0.17963720    -0.05500
C2718       C  0.61973389  0.11083395  0.19868509     0.00400
C2719       C  0.65249101  0.11099699  0.20731757    -0.08100
C2720       C  0.68058335  0.11548685  0.19506782    -0.05500
C2721       C  0.67663563  0.12091702  0.17464034     0.00400
C2722       C  0.64392834  0.13182114  0.16804961    -0.08000
C2723       C  0.63764897  0.15264634  0.14956051     0.62300
H2724       H  0.59032867  0.12699854  0.17350858     0.13000
H2725       H  0.70524235  0.11440222  0.20183666     0.13000
C2726       C  0.65893403  0.10523501  0.22917141     0.62600
F2727       F  0.62017721  0.18107664  0.15453333    -0.22600
F2728       F  0.61809115  0.13497077  0.13646226    -0.19900
F2729       F  0.66721322  0.16255482  0.14048941    -0.19600
F2730       F  0.67280420  0.07399830  0.23218296    -0.19600
F2731       F  0.62968388  0.10789372  0.24007548    -0.20000
F2732       F  0.68148061  0.12876538  0.23600161    -0.22600
C2733       C  0.56691918  0.11748230  0.67611902    -0.05500
C2734       C  0.58911622  0.10642035  0.69127222     0.00400
C2735       C  0.61987394  0.12417850  0.69444840    -0.08100
C2736       C  0.62700858  0.15163550  0.68207215    -0.05500
C2737       C  0.60468099  0.16195620  0.66711275     0.00400
C2738       C  0.57387752  0.14520116  0.66417968    -0.08000
C2739       C  0.54832585  0.15679911  0.64861548     0.62300
H2740       H  0.54362080  0.10419903  0.67350801     0.13000
H2741       H  0.65025796  0.16548619  0.68385034     0.13000
C2742       C  0.64544373  0.11500519  0.71043924     0.62600
F2743       F  0.51963371  0.13712954  0.64843089    -0.22600
F2744       F  0.56255992  0.15576294  0.63008819    -0.19900
F2745       F  0.53841059  0.18900476  0.65240428    -0.19600
F2746       F  0.65522368  0.08221590  0.70863466    -0.19600
F2747       F  0.63145486  0.12031897  0.72873774    -0.20000
F2748       F  0.67442959  0.13417040  0.70926056    -0.22600
C2749       C  0.56337403  0.37821074  0.68158284    -0.05500
C2750       C  0.58681350  0.38974485  0.69573150     0.00400
C2751       C  0.61786940  0.37201771  0.69827240    -0.08100
C2752       C  0.62492201  0.34546232  0.68550333    -0.05500
C2753       C  0.60193705  0.33575225  0.67083287     0.00400
C2754       C  0.57009252  0.35135746  0.66934858    -0.08000
C2755       C  0.54354461  0.34030027  0.65447869     0.62300
H2756       H  0.53952245  0.39101212  0.67961341     0.13000
H2757       H  0.64877679  0.33228293  0.68657073     0.13000
C2758       C  0.64361360  0.38046457  0.71406910     0.62600
F2759       F  0.51301484  0.35657978  0.65689684    -0.22600
F2760       F  0.53761501  0.30662406  0.65667109    -0.19900
F2761       F  0.55470615  0.34686111  0.63555781    -0.19600
F2762       F  0.62920223  0.37598554  0.73239465    -0.19600
F2763       F  0.65432685  0.41290911  0.71159083    -0.20000
F2764       F  0.67190675  0.36018538  0.71343331    -0.22600
C2765       C  0.94038530  0.16426641  0.68047076    -0.05500
C2766       C  0.90829094  0.16416493  0.67156769     0.00400
C2767       C  0.88497913  0.13876553  0.67660242    -0.08100
C2768       C  0.89604707  0.11218018  0.68879155    -0.05500
C2769       C  0.92913406  0.11105306  0.69634453     0.00400
C2770       C  0.95078334  0.13864971  0.69341340    -0.08000
C2771       C  0.98478200  0.14242163  0.70366723     0.62300
H2772       H  0.95749382  0.18464111  0.67727761     0.13000
H2773       H  0.87962676  0.09109044  0.69142735     0.13000
C2774       C  0.84908754  0.13898703  0.66855185     0.62600
F2775       F  0.98681775  0.17360322  0.71188146    -0.22600
F2776       F  0.01015627  0.13935442  0.68998762    -0.19900
F2777       F  0.46726679  0.14056780  0.72383662    -0.19600
F2778       F  0.84932649  0.13107988  0.64882197    -0.19600
F2779       F  0.83465949  0.17003231  0.67071366    -0.20000
F2780       F  0.82900141  0.11608163  0.67836047    -0.22600
C2781       C  0.93363762  0.33243467  0.68490005    -0.05500
C2782       C  0.90364428  0.33612232  0.67380271     0.00400
C2783       C  0.88235363  0.36395072  0.67702675    -0.08100
C2784       C  0.89469251  0.38969187  0.68881902    -0.05500
C2785       C  0.92611174  0.38702786  0.69836878     0.00400
C2786       C  0.94431600  0.35694134  0.69797332    -0.08000
C2787       C  0.97368881  0.35037333  0.71208116     0.62300
H2788       H  0.94886057  0.31031020  0.68308770     0.13000
H2789       H  0.88008958  0.41235899  0.69016396     0.13000
C2790       C  0.84662963  0.36767934  0.66886261     0.62600
F2791       F  0.48734585  0.31495858  0.70642485    -0.22600
F2792       F  0.96327849  0.35590289  0.73118845    -0.19900
F2793       F  0.50077154  0.36893323  0.70654649    -0.19600
F2794       F  0.83616970  0.34105829  0.65776419    -0.19600
F2795       F  0.84448926  0.39617021  0.65724572    -0.20000
F2796       F  0.82452364  0.37056063  0.68445073    -0.22600
C2797       C  0.80689085  0.12489309  0.57125074    -0.05500
C2798       C  0.82561713  0.11343470  0.55506504     0.00400
C2799       C  0.85585374  0.13059068  0.54991288    -0.08100
C2800       C  0.86606254  0.15797843  0.56126229    -0.05500
C2801       C  0.84752217  0.16842929  0.57752794     0.00400
C2802       C  0.81751788  0.15169610  0.58274067    -0.08000
C2803       C  0.79696994  0.16192268  0.60054100     0.62300
H2804       H  0.78369989  0.11263232  0.57522846     0.13000
H2805       H  0.88913593  0.17121056  0.55782356     0.13000
C2806       C  0.87754395  0.12041948  0.53268540     0.62600
F2807       F  0.76868607  0.14216228  0.60312491    -0.22600
F2808       F  0.78637652  0.19449595  0.59824491    -0.19900
F2809       F  0.81643823  0.15914366  0.61747816    -0.19600
F2810       F  0.85875587  0.12268445  0.51541839    -0.19600
F2811       F  0.88905500  0.08824325  0.53561508    -0.20000
F2812       F  0.90557513  0.14064849  0.53050474    -0.22600
C2813       C  0.84867550  0.38031170  0.54789331    -0.05500
C2814       C  0.82855490  0.40358666  0.55770237     0.00400
C2815       C  0.82244403  0.39845287  0.57818760    -0.08100
C2816       C  0.83164538  0.36802020  0.58706354    -0.05500
C2817       C  0.85155339  0.34461438  0.57738739     0.00400
C2818       C  0.86150744  0.35145092  0.55762653    -0.08000
C2819       C  0.88649300  0.32936858  0.54708494     0.62300
H2820       H  0.85410889  0.38477565  0.53245099     0.13000
H2821       H  0.82514372  0.36335590  0.60237431     0.13000
C2822       C  0.80895900  0.42488475  0.59183193     0.62600
F2823       F  0.87257151  0.29857974  0.54369780    -0.22600
F2824       F  0.91547074  0.32551543  0.55847013    -0.19900
F2825       F  0.89570482  0.34286564  0.52901039    -0.19600
F2826       F  0.77521674  0.41889317  0.59565007    -0.19600
F2827       F  0.81281302  0.45661740  0.58411739    -0.20000
F2828       F  0.82666613  0.42381771  0.60956985    -0.22600
C2829       C  0.69229880  0.13407402  0.55299630    -0.05500
C2830       C  0.66592562  0.11290677  0.54730808     0.00400
C2831       C  0.63215329  0.12080733  0.55225722    -0.08100
C2832       C  0.62630200  0.14878029  0.56398033    -0.05500
C2833       C  0.65295073  0.16903933  0.57035776     0.00400
C2834       C  0.68634955  0.16230731  0.56433992    -0.08000
C2835       C  0.71567249  0.18402410  0.57065734     0.62300
H2836       H  0.71791833  0.12766166  0.54896209     0.13000
H2837       H  0.60093692  0.15469284  0.56870853     0.13000
C2838       C  0.60257986  0.09959657  0.54563798     0.62600
F2839       F  0.74612050  0.17275308  0.56339335    -0.22600
F2840       F  0.71783629  0.18426865  0.59100652    -0.19900
F2841       F  0.71083662  0.21611797  0.56369128    -0.19600
F2842       F  0.60823060  0.06657683  0.55060929    -0.19600
F2843       F  0.59854546  0.10284669  0.52543024    -0.20000
F2844       F  0.57263248  0.10920324  0.55430909    -0.22600
C2845       C  0.67962434  0.34334228  0.56465274    -0.05500
C2846       C  0.64670364  0.34135839  0.57198037     0.00400
C2847       C  0.62139081  0.36318641  0.56450396    -0.08100
C2848       C  0.63080339  0.38852533  0.55109048    -0.05500
C2849       C  0.66422680  0.39149746  0.54458926     0.00400
C2850       C  0.68853657  0.36725139  0.55042630    -0.08000
C2851       C  0.72359773  0.36449699  0.54161333     0.62300
H2852       H  0.69838470  0.32542531  0.56978690     0.13000
H2853       H  0.61249670  0.40706716  0.54628967     0.13000
C2854       C  0.58477950  0.35955399  0.57063265     0.62600
F2855       F  0.72801858  0.33264757  0.53466994    -0.22600
F2856       F  0.74776629  0.37028551  0.55601464    -0.19900
F2857       F  0.72868717  0.38627958  0.52595887    -0.19600
F2858       F  0.58167871  0.36545145  0.59055742    -0.19600
F2859       F  0.57375698  0.32770819  0.56677857    -0.20000
F2860       F  0.56391244  0.38163883  0.56044079    -0.22600
C2861       C  0.64049556  0.12768115  0.29770350    -0.05500
C2862       C  0.61194503  0.10930529  0.30356350     0.00400
C2863       C  0.59727970  0.11569656  0.32207608    -0.08100
C2864       C  0.60887421  0.14275095  0.33305475    -0.05500
C2865       C  0.63602692  0.16257488  0.32680279     0.00400
C2866       C  0.65365181  0.15362623  0.30946335    -0.08000
C2867       C  0.68691339  0.17007364  0.30400311     0.62300
H2868       H  0.65188421  0.12213365  0.28366135     0.13000
H2869       H  0.59636240  0.14896663  0.34666504     0.13000
C2870       C  0.56956095  0.09364120  0.33033514     0.62600
F2871       F  0.70126977  0.15562976  0.28767333    -0.22600
F2872       F  0.70946300  0.16677075  0.31963124    -0.19900
F2873       F  0.68232057  0.20339775  0.29971849    -0.19600
F2874       F  0.56381205  0.09976553  0.35005851    -0.19600
F2875       F  0.57886004  0.06065256  0.32873116    -0.20000
F2876       F  0.04733925  0.09936143  0.32482773    -0.22600
C2877       C  0.65080448  0.35885066  0.31280185    -0.05500
C2878       C  0.62810130  0.33942529  0.32382153     0.00400
C2879       C  0.59387176  0.34935604  0.32517587    -0.08100
C2880       C  0.58353068  0.37855451  0.31533751    -0.05500
C2881       C  0.60609129  0.39842332  0.30450141     0.00400
C2882       C  0.64044936  0.38857671  0.30317574    -0.08000
C2883       C  0.66601712  0.40898819  0.29173584     0.62300
H2884       H  0.67701667  0.35106650  0.31244782     0.13000
H2885       H  0.55726472  0.38616128  0.31592938     0.13000
C2886       C  0.56832093  0.32953698  0.33719726     0.62600
F2887       F  0.69730933  0.39355812  0.29127022    -0.22600
F2888       F  0.67024617  0.43933530  0.30064449    -0.19900
F2889       F  0.65498803  0.41379413  0.27247856    -0.19600
F2890       F  0.57829438  0.32795876  0.35677425    -0.19600
F2891       F  0.56552398  0.29771874  0.33006792    -0.20000
F2892       F  0.03801121  0.34279800  0.33095658    -0.22600
C2893       C  0.69201629  0.14272267  0.44784403    -0.05500
C2894       C  0.66838716  0.11693370  0.44929561     0.00400
C2895       C  0.63494868  0.12193531  0.44222103    -0.08100
C2896       C  0.62808495  0.15055595  0.43073134    -0.05500
C2897       C  0.65299206  0.17469062  0.42755802     0.00400
C2898       C  0.68423979  0.17245857  0.43778612    -0.08000
C2899       C  0.70913653  0.20112276  0.43798836     0.62300
H2900       H  0.71690176  0.13907120  0.45434685     0.13000
H2901       H  0.60383406  0.15363342  0.42336527     0.13000
C2902       C  0.60719093  0.09684411  0.44612839     0.62600
F2903       F  0.73837884  0.19297356  0.44838032    -0.22600
F2904       F  0.69469601  0.22802340  0.44709944    -0.19900
F2905       F  0.71774157  0.21028164  0.41895341    -0.19600
F2906       F  0.60313391  0.09277104  0.46626547    -0.19600
F2907       F  0.61552358  0.06667617  0.43799950    -0.20000
F2908       F  0.57648737  0.10717661  0.43814956    -0.22600
C2909       C  0.67293702  0.34220499  0.43687176    -0.05500
C2910       C  0.64770839  0.34498016  0.42216311     0.00400
C2911       C  0.62896440  0.37500732  0.42020744    -0.08100
C2912       C  0.63963861  0.40268080  0.43087885    -0.05500
C2913       C  0.66617047  0.40029043  0.44456892     0.00400
C2914       C  0.68170173  0.36932856  0.44865471    -0.08000
C2915       C  0.70686025  0.36512915  0.46557605     0.62300
H2916       H  0.68647549  0.31891870  0.43863251     0.13000
H2917       H  0.62724563  0.42646712  0.42841601     0.13000
C2918       C  0.59799020  0.37931862  0.40705882     0.62600
F2919       F  0.71836493  0.33272376  0.46741639    -0.22600
F2920       F  0.69152230  0.37362136  0.48304769    -0.19900
F2921       F  0.73441141  0.38550881  0.46273518    -0.19600
F2922       F  0.58592639  0.34951444  0.40004726    -0.19600
F2923       F  0.60568351  0.39998189  0.39124486    -0.20000
F2924       F  0.57235163  0.39380218  0.41773399    -0.22600
C2925       C  0.90004561  0.16265423  0.31759796    -0.05500
C2926       C  0.92147468  0.17342262  0.33287556     0.00400
C2927       C  0.95178915  0.15566091  0.33696367    -0.08100
C2928       C  0.95983954  0.12799229  0.32539125    -0.05500
C2929       C  0.93853228  0.11708665  0.31013385     0.00400
C2930       C  0.90814870  0.13480105  0.30602881    -0.08000
C2931       C  0.88494353  0.12495090  0.28918153     0.62300
H2932       H  0.87670354  0.17616568  0.31493987     0.13000
H2933       H  0.98329873  0.11471277  0.32802627     0.13000
C2934       C  0.97583187  0.16627170  0.35331274     0.62600
F2935       F  0.85704570  0.14566833  0.28751373    -0.22600
F2936       F  0.87341507  0.09294935  0.29232064    -0.19900
F2937       F  0.90231827  0.12653735  0.27157238    -0.19600
F2938       F  0.95998822  0.16447285  0.37137799    -0.19600
F2939       F  0.98621290  0.19858286  0.34980992    -0.20000
F2940       F  0.00428577  0.14623905  0.35446284    -0.22600
C2941       C  0.95714499  0.39439950  0.32587766    -0.05500
C2942       C  0.93791555  0.40369147  0.30922396     0.00400
C2943       C  0.90740760  0.38680430  0.30496601    -0.08100
C2944       C  0.89799355  0.35978362  0.31718880    -0.05500
C2945       C  0.91778803  0.34995911  0.33355864     0.00400
C2946       C  0.94708880  0.36835276  0.33852792    -0.08000
C2947       C  0.96740077  0.36078984  0.35720349     0.62300
H2948       H  0.98037310  0.40774455  0.32882073     0.13000
H2949       H  0.87512510  0.34598801  0.31408464     0.13000
C2950       C  0.88567045  0.39648753  0.28724530     0.62600
F2951       F  0.48564393  0.37151173  0.35689353    -0.22600
F2952       F  0.97697812  0.32775040  0.35774144    -0.19900
F2953       F  0.94800586  0.36740614  0.37354653    -0.19600
F2954       F  0.90376557  0.39211829  0.27011729    -0.19600
F2955       F  0.87607025  0.42941863  0.28851940    -0.20000
F2956       F  0.85658191  0.37748835  0.28615468    -0.22600
C2957       C  0.87894866  0.15522672  0.43818834    -0.05500
C2958       C  0.85460897  0.17288329  0.42717187     0.00400
C2959       C  0.82061566  0.16234024  0.42719465    -0.08100
C2960       C  0.81175124  0.13498335  0.43912632    -0.05500
C2961       C  0.83604076  0.11658344  0.44999566     0.00400
C2962       C  0.87059491  0.12630233  0.44904215    -0.08000
C2963       C  0.89914851  0.10541944  0.45780340     0.62300
H2964       H  0.90496570  0.16348556  0.43740141     0.13000
H2965       H  0.78554724  0.12727790  0.43967719     0.13000
C2966       C  0.79393111  0.17964530  0.41442761     0.62600
F2967       F  0.93002995  0.11415257  0.44976165    -0.22600
F2968       F  0.89402857  0.07218639  0.45390549    -0.19900
F2969       F  0.90112860  0.11004128  0.47792266    -0.19600
F2970       F  0.80395114  0.18141094  0.39497022    -0.19600
F2971       F  0.78888088  0.21149997  0.42114275    -0.20000
F2972       F  0.76354910  0.16270037  0.41481567    -0.22600
C2973       C  0.87148038  0.36401350  0.43581487    -0.05500
C2974       C  0.84697000  0.34549515  0.42580371     0.00400
C2975       C  0.81244035  0.35388482  0.42738427    -0.08100
C2976       C  0.80372102  0.38169487  0.43850006    -0.05500
C2977       C  0.82804216  0.40025829  0.44883204     0.00400
C2978       C  0.86270965  0.39136908  0.44742665    -0.08000
C2979       C  0.89067672  0.41104440  0.45729100     0.62300
H2980       H  0.89775125  0.35699121  0.43419886     0.13000
H2981       H  0.77766091  0.38958918  0.43880095     0.13000
C2982       C  0.78508019  0.33380436  0.41714144     0.62600
F2983       F  0.92218478  0.40282372  0.45007848    -0.22600
F2984       F  0.89086318  0.40419334  0.47732383    -0.19900
F2985       F  0.88603419  0.44473712  0.45393613    -0.19600
F2986       F  0.78625955  0.30121839  0.42386173    -0.19600
F2987       F  0.78990346  0.33451351  0.39697211    -0.20000
F2988       F  0.75304309  0.34606872  0.42076863    -0.22600
N2989       N  0.88122601  0.80861554  0.37613506    -0.36300
N2990       N  0.89681342  0.75875058  0.34656599    -0.56900
N2991       N  0.88551723  0.70748991  0.37681061    -0.36300
N2992       N  0.86816280  0.75779695  0.40557783    -0.56900
C2993       C  0.88233041  0.82737840  0.35942851     0.27300
C2994       C  0.86574362  0.82694988  0.39001842     0.27300
C2995       C  0.88818412  0.68850311  0.36056687     0.27300
C2996       C  0.87285207  0.68794595  0.39143044     0.27300
C2997       C  0.90770620  0.78631351  0.33676764     0.35900
C2998       C  0.90811269  0.73202698  0.33658949     0.35900
C2999       C  0.86533863  0.78463381  0.41720124     0.35900
C3000       C  0.86723055  0.73072216  0.41758770     0.35900
C3001       C  0.86719898  0.85789341  0.36266220    -0.21600
C3002       C  0.85680541  0.85764952  0.38195077    -0.21600
C3003       C  0.87766018  0.65642048  0.36509129    -0.21600
C3004       C  0.86811819  0.65606614  0.38446869    -0.21600
C3005       C  0.92524431  0.77706307  0.32011441    -0.22700
C3006       C  0.92520288  0.74273425  0.31989323    -0.22600
C3007       C  0.86271502  0.77456722  0.43677089    -0.22700
C3008       C  0.86372150  0.74038139  0.43700375    -0.22600
C3009       C  0.90085489  0.81959571  0.34236021    -0.18000
C3010       C  0.86159088  0.81772269  0.41012300    -0.18000
C3011       C  0.86599917  0.69752428  0.41106439    -0.18000
C3012       C  0.90292983  0.69820396  0.34235747    -0.18000
H3013       H  0.86500646  0.87865190  0.35238437     0.14900
H3014       H  0.84476501  0.87811738  0.38931970     0.14900
H3015       H  0.87732742  0.63511790  0.35557466     0.14900
H3016       H  0.85880388  0.63458721  0.39252235     0.14900
H3017       H  0.93667232  0.79333093  0.30920988     0.13200
H3018       H  0.93683890  0.72740678  0.30886422     0.13200
H3019       H  0.85920695  0.79016517  0.44945034     0.13200
H3020       H  0.86130190  0.72444003  0.44991907     0.13200
H3021       H  0.89479608  0.78680848  0.37864204     0.26500
H3022       H  0.89514562  0.73124227  0.37839778     0.26500
N3023       N  0.64120685  0.71003016  0.37474656    -0.36300
N3024       N  0.63937411  0.76261902  0.40285299    -0.56900
N3025       N  0.63930988  0.80946481  0.37078646    -0.36300
N3026       N  0.64222220  0.75648686  0.34181261    -0.56900
C3027       C  0.65076798  0.69404483  0.39159311     0.27300
C3028       C  0.64999243  0.69047833  0.35960167     0.27300
C3029       C  0.64832197  0.82891363  0.38607961     0.27300
C3030       C  0.64729868  0.82603735  0.35401113     0.27300
C3031       C  0.63250325  0.73673532  0.41493324     0.35900
C3032       C  0.63176750  0.79024677  0.41278623     0.35900
C3033       C  0.63436188  0.72833989  0.33206656     0.35900
C3034       C  0.63362894  0.78240995  0.32981124     0.35900
C3035       C  0.66647861  0.66430233  0.38703099    -0.21600
C3036       C  0.66564455  0.66191975  0.36679912    -0.21600
C3037       C  0.66294517  0.85789559  0.37890801    -0.21600
C3038       C  0.66170880  0.85636631  0.35865895    -0.21600
C3039       C  0.61970837  0.74779049  0.43261650    -0.22700
C3040       C  0.61934886  0.78197368  0.43127727    -0.22600
C3041       C  0.62168176  0.73637328  0.31348076    -0.22700
C3042       C  0.62167237  0.77065493  0.31194482    -0.22600
C3043       C  0.64243161  0.70409248  0.41087288    -0.18000
C3044       C  0.63964709  0.69573675  0.33983507    -0.18000
C3045       C  0.63715812  0.81634132  0.33492409    -0.18000
C3046       C  0.64057318  0.82230346  0.40612529    -0.18000
H3047       H  0.67634900  0.64565597  0.39723253     0.14900
H3048       H  0.67460772  0.64115656  0.35833371     0.14900
H3049       H  0.67236937  0.87858964  0.38732092     0.14900
H3050       H  0.66994273  0.87576179  0.34860350     0.14900
H3051       H  0.61293576  0.73287378  0.44539761     0.13200
H3052       H  0.61206667  0.79879826  0.44279376     0.13200
H3053       H  0.61341801  0.71937971  0.30221870     0.13200
H3054       H  0.61331740  0.78526269  0.29926921     0.13200
H3055       H  0.62506667  0.73045619  0.37369694     0.26500
H3056       H  0.62404354  0.78844845  0.37151866     0.26500
C3057       C  0.68322014  0.92982372  0.45433570     0.42800
N3058       N  0.69199870  0.96988200  0.47387822     0.01600
C3059       C  0.82966039  0.56982198  0.47805607    -0.06200
H3060       H  0.85556215  0.93662131  0.48746149     0.07100
C3061       C  0.78809002  0.94370546  0.55000835    -0.06600
Co3062     Co  0.74843572  0.51006714  0.46249055     0.74200
N3063       N  0.81488750  0.97051351  0.48015164    -0.25800
Co3064     Co  0.80513328  0.50721609  0.50214493     0.74100
C3065       C  0.82142111  0.93011910  0.54589873     0.42900
N3066       N  0.70878588  0.96605561  0.53191606     0.01300
N3067       N  0.80958927  0.96875794  0.52461868     0.01400
N3068       N  0.79186754  0.57056729  0.45293494    -0.46600
H3069       H  0.73126223  0.94120099  0.43664941     0.07100
N3070       N  0.79280928  0.97152603  0.46540732     0.01700
N3071       N  0.80007495  0.54307596  0.52402429     0.01400
C3072       C  0.80547369  0.58604123  0.54238821     0.43000
N3073       N  0.68635115  0.96696531  0.51738969    -0.25200
C3074       C  0.70736004  0.57343375  0.45002810    -0.06100
N3075       N  0.67044056  0.94566390  0.46995158    -0.46300
N3076       N  0.81972589  0.56908273  0.52746561    -0.46500
C3077       C  0.67550752  0.58852203  0.45581637     0.42800
N3078       N  0.78580195  0.54589597  0.46550905     0.01600
N3079       N  0.67762808  0.54102229  0.51678842    -0.25200
N3080       N  0.71782138  0.97086454  0.46167098    -0.25700
N3081       N  0.69947265  0.54043952  0.53158119     0.01300
H3082       H  0.63712957  0.57465888  0.50859938     0.07200
H3083       H  0.75662550  0.57253363  0.55918399     0.07200
N3084       N  0.80759574  0.54471598  0.48033112    -0.25800
N3085       N  0.78325557  0.96764142  0.53641340    -0.25400
N3086       N  0.68411131  0.54456382  0.47338581     0.01600
C3087       C  0.82447317  0.92971862  0.45864771     0.43000
C3088       C  0.66599299  0.94046945  0.51914568    -0.06600
N3089       N  0.77382232  0.54186067  0.53583861    -0.25400
H3090       H  0.77090014  0.93785381  0.56182799     0.07200
N3091       N  0.79756579  0.94778440  0.45245821    -0.46600
H3092       H  0.64542914  0.93413632  0.50928783     0.07200
C3093       C  0.66778168  0.58209996  0.53729823     0.42900
C3094       C  0.71437182  0.94640269  0.44867508    -0.06100
Co3095     Co  0.68073457  0.50632243  0.49459134     0.73800
N3096       N  0.70539755  0.93982878  0.54364665    -0.46300
C3097       C  0.81930148  0.58699093  0.45965963     0.43100
N3098       N  0.66250153  0.56948999  0.47045680    -0.46300
Co3099     Co  0.73738355  0.50505399  0.53385741     0.73900
C3100       C  0.77511610  0.56758078  0.54798510    -0.06600
C3101       C  0.83593140  0.94463750  0.47728605    -0.06200
N3102       N  0.71047941  0.54628105  0.46157820    -0.25700
N3103       N  0.83310559  0.94650071  0.52971439    -0.46500
H3104       H  0.84986105  0.57507801  0.48827790     0.07100
C3105       C  0.65654470  0.56683712  0.51899323    -0.06600
Cl3106     Cl  0.74297052  0.50714703  0.49824892    -0.49600
C3107       C  0.67920989  0.92250359  0.53637490     0.42900
H3108       H  0.72505318  0.58153847  0.43888270     0.07100
N3109       N  0.69454060  0.56463370  0.54412835    -0.46300
N3110       N  0.89287856  0.80011137  0.62123110    -0.36300
N3111       N  0.90070431  0.74802076  0.65052995    -0.56900
N3112       N  0.88006564  0.70175081  0.62089647    -0.36300
N3113       N  0.87349990  0.75433599  0.59086800    -0.56900
C3114       C  0.90976467  0.81588526  0.63576065     0.27300
C3115       C  0.89541714  0.81909963  0.60466340     0.27300
C3116       C  0.89371003  0.68097855  0.63472992     0.27300
C3117       C  0.87795884  0.68483735  0.60386348     0.27300
C3118       C  0.90138541  0.77445795  0.66255156     0.35900
C3119       C  0.89588466  0.72086139  0.66209522     0.35900
C3120       C  0.86259115  0.78316262  0.58254551     0.35900
C3121       C  0.85552353  0.72988869  0.58234876     0.35900
C3122       C  0.92425830  0.84468776  0.62818484    -0.21600
C3123       C  0.91495310  0.84683752  0.60855426    -0.21600
C3124       C  0.90104037  0.65070011  0.62623027    -0.21600
C3125       C  0.89076325  0.65304289  0.60676673    -0.21600
C3126       C  0.89718683  0.76407560  0.68196285    -0.22700
C3127       C  0.89377240  0.73001840  0.68167961    -0.22600
C3128       C  0.83772838  0.77699730  0.56853828    -0.22700
C3129       C  0.83356954  0.74304220  0.56821878    -0.22600
C3130       C  0.90780190  0.80738945  0.65605673    -0.18000
C3131       C  0.87572078  0.81461711  0.58737270    -0.18000
C3132       C  0.85976870  0.69589357  0.58697152    -0.18000
C3133       C  0.89635261  0.68789456  0.65513887    -0.18000
H3134       H  0.93827512  0.86320922  0.63625763     0.14900
H3135       H  0.92039363  0.86730877  0.59854333     0.14900
H3136       H  0.91149473  0.62877929  0.63345518     0.14900
H3137       H  0.89146816  0.63326555  0.59614650     0.14900
H3138       H  0.89702796  0.77933216  0.69495974     0.13200
H3139       H  0.89045068  0.71383735  0.69441500     0.13200
H3140       H  0.82413150  0.79503776  0.55948711     0.13200
H3141       H  0.81608899  0.72962668  0.55891681     0.13200
H3142       H  0.87571226  0.78092620  0.62333048     0.26500
H3143       H  0.86805980  0.72416070  0.62355135     0.26500
N3144       N  0.62053778  0.70245469  0.61919626    -0.36300
N3145       N  0.63532250  0.75336151  0.59022625    -0.56900
N3146       N  0.62930610  0.80223383  0.62046067    -0.36300
N3147       N  0.61612315  0.75153231  0.65001725    -0.56900
C3148       C  0.63344872  0.68396574  0.60456438     0.27300
C3149       C  0.62029317  0.68314159  0.63566473     0.27300
C3150       C  0.64300630  0.82050008  0.60568425     0.27300
C3151       C  0.63346202  0.81942691  0.63727126     0.27300
C3152       C  0.63248634  0.72724424  0.57816752     0.35900
C3153       C  0.63446932  0.78076125  0.57858700     0.35900
C3154       C  0.60218118  0.72535338  0.65955857     0.35900
C3155       C  0.60815964  0.77863926  0.66048741     0.35900
C3156       C  0.64147208  0.65249783  0.61187047    -0.21600
C3157       C  0.63300462  0.65194123  0.63151088    -0.21600
C3158       C  0.65651433  0.84948234  0.61322626    -0.21600
C3159       C  0.65023911  0.84890790  0.63318497    -0.21600
C3160       C  0.62977771  0.73797035  0.55869606    -0.22700
C3161       C  0.63102150  0.77206618  0.55895592    -0.22600
C3162       C  0.58591915  0.73570407  0.67641920    -0.22700
C3163       C  0.58983685  0.76958321  0.67705289    -0.22600
C3164       C  0.63587725  0.69402665  0.58452788    -0.18000
C3165       C  0.60584253  0.69209571  0.65376607    -0.18000
C3166       C  0.61797873  0.81128899  0.65539229    -0.18000
C3167       C  0.64053735  0.81304737  0.58541498    -0.18000
H3168       H  0.65169790  0.63184434  0.60380071     0.14900
H3169       H  0.63532225  0.63081531  0.64151251     0.14900
H3170       H  0.66844787  0.86953090  0.60507371     0.14900
H3171       H  0.65628990  0.86845158  0.64340204     0.14900
H3172       H  0.62812436  0.72278799  0.54568812     0.13200
H3173       H  0.63052434  0.78849130  0.54615950     0.13200
H3174       H  0.57274648  0.72044184  0.68714615     0.13200
H3175       H  0.58015747  0.78570904  0.68832071     0.13200
H3176       H  0.60847985  0.72531424  0.61756243     0.26500
H3177       H  0.61332647  0.78200243  0.61867955     0.26500
C3178       C  0.94819066  0.58492960  0.29723927     0.42800
N3179       N  0.97899284  0.56797353  0.27342009     0.01600
C3180       C  0.96485431  0.93459342  0.21425371    -0.06200
H3181       H  0.99596338  0.89956107  0.28304924     0.07100
C3182       C  0.60535528  0.96151753  0.27960269    -0.06600
Co3183     Co  0.95594013  0.01124046  0.25459626     0.74200
N3184       N  0.98475599  0.94818595  0.27102484    -0.25800
Co3185     Co  0.51925461  0.94900674  0.24457401     0.74100
C3186       C  0.59542760  0.92727497  0.28511685     0.42900
N3187       N  0.57365279  0.54754446  0.27428592     0.01300
N3188       N  0.55970574  0.94744086  0.26411678     0.01400
N3189       N  0.92461737  0.97223050  0.22132520    -0.46600
H3190       H  0.91404645  0.53817028  0.29493056     0.07100
N3191       N  0.96112241  0.97051573  0.27465060     0.01700
N3192       N  0.55487538  0.95587389  0.22177071     0.01400
C3193       C  0.59000731  0.95012204  0.19785403     0.43000
N3194       N  0.54893581  0.56949193  0.27221577    -0.25200
C3195       C  0.92762265  0.54627183  0.21889191    -0.06100
N3196       N  0.97480488  0.59238229  0.28590631    -0.46300
N3197       N  0.56244583  0.93637547  0.20670154    -0.46500
C3198       C  0.93748039  0.57499867  0.20727381     0.42800
N3199       N  0.95207776  0.97650599  0.23224196     0.01600
N3200       N  0.55080600  0.56797799  0.22952974    -0.25200
N3201       N  0.95707228  0.54357740  0.27567287    -0.25700
N3202       N  0.57551189  0.54603032  0.23157363     0.01300
H3203       H  0.54813735  0.61451722  0.21317469     0.07200
H3204       H  0.62230982  0.99361989  0.20835185     0.07200
N3205       N  0.97631645  0.95499361  0.22843176    -0.25800
N3206       N  0.58145128  0.97192905  0.26650449    -0.25400
N3207       N  0.97395452  0.56719159  0.23047423     0.01600
C3208       C  0.95210585  0.92994221  0.29514657     0.43000
C3209       C  0.55382305  0.59431991  0.28471850    -0.06600
N3210       N  0.57727339  0.97991340  0.22385791    -0.25400
H3211       H  0.62729392  0.97567117  0.28391090     0.07200
N3212       N  0.94010771  0.95997001  0.28869675    -0.46600
H3213       H  0.53899139  0.61688806  0.28513855     0.07200
C3214       C  0.59467390  0.58036500  0.21016596     0.42900
C3215       C  0.93598979  0.55217109  0.29040131    -0.06100
Co3216     Co  0.51185000  0.56760319  0.25045409     0.73800
N3217       N  0.59672001  0.55731092  0.28746450    -0.46300
C3218       C  0.93010971  0.94606987  0.20964464     0.43100
N3219       N  0.96586052  0.58775034  0.21559365    -0.46300
Co3220     Co  0.57846433  0.01297166  0.24700219     0.73900
C3221       C  0.59989433  0.97839108  0.20948603    -0.06600
C3222       C  0.98144275  0.92233021  0.28343879    -0.06200
N3223       N  0.95159855  0.54317075  0.23272585    -0.25700
N3224       N  0.56700957  0.92093088  0.27491438    -0.46500
H3225       H  0.97886584  0.91389014  0.20857788     0.07100
C3226       C  0.56074912  0.59110164  0.21616776    -0.06600
Cl3227     Cl  0.51664912  0.00953963  0.24837162    -0.49600
C3228       C  0.58501666  0.58625033  0.29501987     0.42900
H3229       H  0.90564096  0.53055699  0.21733422     0.07100
N3230       N  0.60147162  0.55212556  0.22009838    -0.46300
C3231       C  0.92519461  0.80852005  0.95910126     0.42800
N3232       N  0.97039853  0.79690168  0.97539476     0.01600
C3233       C  0.56429198  0.65488828  0.97559544    -0.06200
H3234       H  0.93391107  0.63313697  0.98664249     0.07100
C3235       C  0.95228497  0.70044295  0.04891689    -0.06600
Co3236     Co  0.50366244  0.73811987  0.96459529     0.74200
N3237       N  0.96511270  0.67525966  0.97928000    -0.25800
Co3238     Co  0.50490990  0.67923830  0.00241392     0.74100
C3239       C  0.93113286  0.67285884  0.04279863     0.42900
N3240       N  0.97964647  0.77684438  0.03330568     0.01300
N3241       N  0.97183789  0.67892606  0.02252204     0.01400
N3242       N  0.56176304  0.69405778  0.95127488    -0.46600
H3243       H  0.92979361  0.76182931  0.94027567     0.07100
N3244       N  0.96345461  0.69807402  0.96516169     0.01700
N3245       N  0.54445116  0.67825218  0.02324911     0.01400
C3246       C  0.58410729  0.66332009  0.04332918     0.43000
N3247       N  0.97887580  0.80002265  0.01934162    -0.25200
C3248       C  0.56260357  0.77562738  0.94639397    -0.06100
N3249       N  0.94622325  0.81971117  0.97335209    -0.46300
N3250       N  0.56601421  0.65363144  0.02736257    -0.46500
C3251       C  0.58294160  0.80481350  0.95048873     0.42800
N3252       N  0.53834099  0.69901258  0.96471319     0.01600
N3253       N  0.55441943  0.79855811  0.01844722    -0.25200
N3254       N  0.96643261  0.77198502  0.96310585    -0.25700
N3255       N  0.55392267  0.77602710  0.03281703     0.01300
H3256       H  0.59066631  0.83647661  0.01059773     0.07200
H3257       H  0.57818824  0.71072168  0.06124225     0.07200
N3258       N  0.53917255  0.67650265  0.97912380    -0.25800
N3259       N  0.97611138  0.70291430  0.03529603    -0.25400
N3260       N  0.54706700  0.79693643  0.97394312     0.01600
C3261       C  0.92127009  0.66638930  0.95946496     0.43000
C3262       C  0.95603592  0.82317238  0.02443211    -0.06600
N3263       N  0.54756546  0.70306447  0.03558417    -0.25400
H3264       H  0.94991484  0.71626892  0.06146049     0.07200
N3265       N  0.93765242  0.69371405  0.95301094    -0.46600
H3266       H  0.95034524  0.84557415  0.01603284     0.07200
C3267       C  0.60100824  0.80136987  0.03735027     0.42900
C3268       C  0.93879289  0.77739584  0.95206685    -0.06100
Co3269     Co  0.51399304  0.80179522  0.99809036     0.73800
N3270       N  0.95855376  0.78285487  0.04784844    -0.46300
C3271       C  0.57914203  0.66680533  0.95715194     0.43100
N3272       N  0.57183088  0.81698637  0.96789859    -0.46300
Co3273     Co  0.51432986  0.74263826  0.03593100     0.73900
C3274       C  0.57195627  0.69596980  0.04863883    -0.06600
C3275       C  0.93921223  0.65411427  0.97705878    -0.06200
N3276       N  0.54181645  0.77248804  0.96158980    -0.25700
N3277       N  0.94481380  0.66052467  0.02626718    -0.46500
H3278       H  0.57172679  0.63412960  0.98499011     0.07100
C3279       C  0.58317684  0.81611480  0.02018179    -0.06600
Cl3280     Cl  0.50941906  0.74051856  0.00023519    -0.49600
C3281       C  0.94270714  0.81179946  0.04362183     0.42900
H3282       H  0.56222125  0.75999640  0.93356995     0.07100
N3283       N  0.58089431  0.77712055  0.04443895    -0.46300
N3284       N  0.68315880  0.85713243  0.86842133    -0.36300
N3285       N  0.76187056  0.88025631  0.84245598    -0.56900
N3286       N  0.81035061  0.87230079  0.87463133    -0.36300
N3287       N  0.75799366  0.85053169  0.90060183    -0.56900
C3288       C  0.69799103  0.85338093  0.85071097     0.27300
C3289       C  0.69716515  0.83403767  0.88068724     0.27300
C3290       C  0.82978376  0.87032956  0.85833693     0.27300
C3291       C  0.82778059  0.85753336  0.88971310     0.27300
C3292       C  0.73435426  0.88997350  0.83188518     0.35900
C3293       C  0.78910282  0.89410730  0.83397585     0.35900
C3294       C  0.72904399  0.84538965  0.91056110     0.35900
C3295       C  0.78238912  0.85599865  0.91417178     0.35900
C3296       C  0.71946624  0.82608291  0.85138479    -0.21600
C3297       C  0.71958021  0.81440602  0.87045532    -0.21600
C3298       C  0.85953808  0.85354940  0.86306844    -0.21600
C3299       C  0.85819129  0.84534682  0.88283675    -0.21600
C3300       C  0.74393292  0.91108874  0.81663283    -0.22700
C3301       C  0.77890429  0.91346916  0.81783967    -0.22600
C3302       C  0.73469187  0.84851407  0.93063492    -0.22700
C3303       C  0.76859254  0.85553867  0.93292496    -0.22600
C3304       C  0.70125561  0.87961999  0.83692686    -0.18000
C3305       C  0.69819643  0.83734340  0.90122120    -0.18000
C3306       C  0.81719970  0.85605998  0.90963758    -0.18000
C3307       C  0.82262789  0.88599197  0.83983208    -0.18000
H3308       H  0.73649389  0.81821294  0.83993629     0.14900
H3309       H  0.73658672  0.79575449  0.87657403     0.14900
H3310       H  0.88029634  0.84814238  0.85332412     0.14900
H3311       H  0.87760650  0.83231275  0.89125306     0.14900
H3312       H  0.72766739  0.92280914  0.80563919     0.13200
H3313       H  0.79495167  0.92737467  0.80786072     0.13200
H3314       H  0.71663808  0.84531552  0.94240165     0.13200
H3315       H  0.78178741  0.85853620  0.94683548     0.13200
H3316       H  0.66932902  0.87786988  0.87278397     0.26500
H3317       H  0.78816731  0.88613989  0.87589887     0.26500
N3318       N  0.70154684  0.62420758  0.87293448    -0.36300
N3319       N  0.75189195  0.61388134  0.84264448    -0.56900
N3320       N  0.80287295  0.61411206  0.87369779    -0.36300
N3321       N  0.75157524  0.62564541  0.90321787    -0.56900
C3322       C  0.68441526  0.63168369  0.85611936     0.27300
C3323       C  0.68397278  0.63728882  0.88797263     0.27300
C3324       C  0.82218490  0.61476231  0.85734289     0.27300
C3325       C  0.82213942  0.62541610  0.88874189     0.27300
C3326       C  0.72338873  0.60574992  0.83270379     0.35900
C3327       C  0.77782282  0.59926671  0.83324503     0.35900
C3328       C  0.72419715  0.62412140  0.91490245     0.35900
C3329       C  0.77883420  0.62203569  0.91506927     0.35900
C3330       C  0.65590206  0.65019265  0.86045380    -0.21600
C3331       C  0.65578913  0.65402905  0.88059710    -0.21600
C3332       C  0.85430735  0.62601940  0.86206528    -0.21600
C3333       C  0.85418585  0.63310631  0.88184847    -0.21600
C3334       C  0.73122140  0.58598362  0.81683121    -0.22700
C3335       C  0.76588120  0.58219106  0.81703555    -0.22600
C3336       C  0.73405552  0.61903492  0.93439888    -0.22700
C3337       C  0.76886323  0.61800881  0.93452421    -0.22600
C3338       C  0.69077876  0.61706324  0.83772322    -0.18000
C3339       C  0.69113529  0.63152845  0.90818906    -0.18000
C3340       C  0.81224965  0.62700217  0.90872726    -0.18000
C3341       C  0.81215311  0.60300287  0.83866666    -0.18000
H3342       H  0.63646401  0.65872682  0.85022457     0.14900
H3343       H  0.63636399  0.66633856  0.88894911     0.14900
H3344       H  0.87565693  0.62868602  0.85229187     0.14900
H3345       H  0.87552036  0.64223038  0.89026674     0.14900
H3346       H  0.71383627  0.57546616  0.80622357     0.13200
H3347       H  0.78058969  0.56836957  0.80655880     0.13200
H3348       H  0.71801246  0.61773916  0.94723456     0.13200
H3349       H  0.78500760  0.61576486  0.94746055     0.13200
H3350       H  0.72076563  0.60659153  0.87429929     0.26500
H3351       H  0.77921552  0.60309142  0.87485871     0.26500
C3352       C  0.94289604  0.92057984  0.70264869     0.42800
N3353       N  0.95151793  0.96184424  0.72175917     0.01600
C3354       C  0.58248684  0.56490064  0.72273891    -0.06200
H3355       H  0.61166221  0.93138871  0.73325489     0.07100
C3356       C  0.55317735  0.94982708  0.79974677    -0.06600
Co3357     Co  0.50903110  0.99816906  0.70929077     0.74200
N3358       N  0.56875892  0.96210692  0.72648867    -0.25800
Co3359     Co  0.56854033  0.00047156  0.74712169     0.74100
C3360       C  0.58604760  0.93566573  0.79428875     0.42900
N3361       N  0.97079285  0.96241297  0.78065813     0.01300
N3362       N  0.56728516  0.96708833  0.77066084     0.01400
N3363       N  0.54327136  0.56145005  0.69858917    -0.46600
H3364       H  0.98914976  0.93354507  0.68383418     0.07100
N3365       N  0.54594666  0.96187642  0.71221547     0.01700
N3366       N  0.56230598  0.53730620  0.76920715     0.01400
C3367       C  0.57634513  0.57376881  0.79080939     0.43000
N3368       N  0.94877596  0.96189786  0.76590098    -0.25200
C3369       C  0.96882146  0.55648735  0.69478755    -0.06100
N3370       N  0.93072336  0.93648195  0.71857062    -0.46300
N3371       N  0.58599418  0.55898647  0.77398668    -0.46500
C3372       C  0.93865477  0.57369562  0.70130493     0.42800
N3373       N  0.54110409  0.53623950  0.71115153     0.01600
N3374       N  0.94513330  0.53460775  0.76498934    -0.25200
N3375       N  0.97626610  0.96330645  0.70887063    -0.25700
N3376       N  0.96664864  0.53586663  0.77997495     0.01300
H3377       H  0.89428090  0.55230360  0.76086375     0.07200
H3378       H  0.52689188  0.56390628  0.80796049     0.07200
N3379       N  0.56382082  0.53748482  0.72537590    -0.25800
N3380       N  0.54336793  0.96878630  0.78409956    -0.25400
N3381       N  0.94893876  0.53281141  0.72110088     0.01600
C3382       C  0.57829461  0.92033849  0.70557793     0.43000
C3383       C  0.92524301  0.93897044  0.76989943    -0.06600
N3384       N  0.53723760  0.53665587  0.78189517    -0.25400
H3385       H  0.54086599  0.94907591  0.81392760     0.07200
N3386       N  0.55074691  0.93776312  0.69965513    -0.46600
H3387       H  0.90198760  0.93600863  0.76159768     0.07200
C3388       C  0.92384600  0.56558942  0.78872957     0.42900
C3389       C  0.97273473  0.93850546  0.69611921    -0.06100
Co3390     Co  0.94856073  0.99818213  0.74365522     0.72600
N3391       N  0.96292816  0.94099737  0.79490006    -0.46300
C3392       C  0.56883649  0.58109223  0.70467698     0.43100
N3393       N  0.92736708  0.55761440  0.71762087    -0.46300
Co3394     Co  0.50416386  0.00464660  0.78122643     0.73900
C3395       C  0.54309961  0.55964073  0.79557301    -0.06600
C3396       C  0.59028449  0.93664454  0.72375526    -0.06200
N3397       N  0.97347591  0.53190470  0.70803951    -0.25700
N3398       N  0.59311641  0.94812256  0.77625629    -0.46500
H3399       H  0.60230250  0.57186851  0.73279421     0.07100
C3400       C  0.91793549  0.55309339  0.76898131    -0.06600
Cl3401     Cl  0.50650054  0.00087259  0.74525562    -0.49600
C3402       C  0.93409365  0.92544093  0.78945550     0.42900
H3403       H  0.98491566  0.56198639  0.68234596     0.07100
N3404       N  0.95445095  0.55363189  0.79466040    -0.46300
N3405       N  0.76507634  0.61927907  0.15524807    -0.36300
N3406       N  0.81088786  0.63500677  0.12336604    -0.56900
N3407       N  0.75658544  0.62985893  0.09404714    -0.36300
N3408       N  0.71222164  0.61015060  0.12499246    -0.56900
C3409       C  0.79487008  0.60850767  0.16313464     0.27300
C3410       C  0.73992107  0.60486517  0.16573627     0.27300
C3411       C  0.77917612  0.64801027  0.08368245     0.27300
C3412       C  0.72618483  0.63349048  0.08485694     0.27300
C3413       C  0.83374287  0.63301376  0.13831317     0.35900
C3414       C  0.82800725  0.64558005  0.10731092     0.35900
C3415       C  0.69649373  0.59782874  0.14105498     0.35900
C3416       C  0.69312095  0.60158777  0.10925229     0.35900
C3417       C  0.78854492  0.58629870  0.17847512    -0.21600
C3418       C  0.75394543  0.58348460  0.17985444    -0.21600
C3419       C  0.76333179  0.66255921  0.06741599    -0.21600
C3420       C  0.72966373  0.65444139  0.06856528    -0.21600
C3421       C  0.86523193  0.64328822  0.13185918    -0.22700
C3422       C  0.86170361  0.65091064  0.11220749    -0.22600
C3423       C  0.66847077  0.57949296  0.13553650    -0.22700
C3424       C  0.66635237  0.58180883  0.11530807    -0.22600
C3425       C  0.82759741  0.61838770  0.15701549    -0.18000
C3426       C  0.70514665  0.60657077  0.16050455    -0.18000
C3427       C  0.69598056  0.61701226  0.09043424    -0.18000
C3428       C  0.81380706  0.65139137  0.08832518    -0.18000
H3429       H  0.80698031  0.57258612  0.18727137     0.14900
H3430       H  0.74098459  0.56557793  0.18911894     0.14900
H3431       H  0.77465300  0.67794893  0.05605816     0.14900
H3432       H  0.71015888  0.66296681  0.05841282     0.14900
H3433       H  0.88857443  0.64432380  0.14028466     0.13200
H3434       H  0.88173675  0.65955825  0.10265729     0.13200
H3435       H  0.65066102  0.56702278  0.14514741     0.13200
H3436       H  0.64620467  0.57196306  0.10622129     0.13200
H3437       H  0.76155810  0.63708317  0.14408111     0.26500
H3438       H  0.76242504  0.61334062  0.10554807     0.26500
N3439       N  0.76915879  0.86619679  0.09123148    -0.36300
N3440       N  0.81718522  0.88504410  0.12191523    -0.56900
N3441       N  0.76159388  0.89786468  0.14886229    -0.36300
N3442       N  0.71360320  0.87591378  0.11898983    -0.56900
C3443       C  0.79846089  0.85552024  0.08327138     0.27300
C3444       C  0.74359086  0.85080399  0.08165373     0.27300
C3445       C  0.78812509  0.90221898  0.16136451     0.27300
C3446       C  0.73282829  0.89859599  0.15958842     0.27300
C3447       C  0.83860939  0.88240211  0.10657389     0.35900
C3448       C  0.83496091  0.89912909  0.13671738     0.35900
C3449       C  0.69546163  0.86904600  0.10254907     0.35900
C3450       C  0.69124432  0.88675565  0.13245747     0.35900
C3451       C  0.79136408  0.83359030  0.06822254    -0.21600
C3452       C  0.75675592  0.83079851  0.06710756    -0.21600
C3453       C  0.77600543  0.90591202  0.18034564    -0.21600
C3454       C  0.74118150  0.90402223  0.17918767    -0.21600
C3455       C  0.87010361  0.89478512  0.11164466    -0.22700
C3456       C  0.86783746  0.90531315  0.13070475    -0.22600
C3457       C  0.66138810  0.87478582  0.10575795    -0.22700
C3458       C  0.65874291  0.88619940  0.12459128    -0.22600
C3459       C  0.83139891  0.86572051  0.08883127    -0.18000
C3460       C  0.70865734  0.85522941  0.08516117    -0.18000
C3461       C  0.69923887  0.89633314  0.15199241    -0.18000
C3462       C  0.82268851  0.90528939  0.15591731    -0.18000
H3463       H  0.80925198  0.82099616  0.05892623     0.14900
H3464       H  0.74292214  0.81563618  0.05676863     0.14900
H3465       H  0.79067365  0.91042470  0.19358826     0.14900
H3466       H  0.72396543  0.90661200  0.19138872     0.14900
H3467       H  0.89257550  0.89556996  0.10265230     0.13200
H3468       H  0.88823619  0.91606738  0.13920783     0.13200
H3469       H  0.64049278  0.87094170  0.09563486     0.13200
H3470       H  0.63539383  0.89287848  0.13174335     0.13200
H3471       H  0.76657754  0.88519247  0.10128634     0.26500
H3472       H  0.76279672  0.89801133  0.13364349     0.26500
C3473       C  0.63758495  0.58624712  0.83390969    -0.05500
C3474       C  0.66075024  0.60835125  0.82537212     0.00400
C3475       C  0.65378575  0.62216542  0.80643120    -0.08100
C3476       C  0.62505740  0.61091175  0.79605458    -0.05500
C3477       C  0.60211874  0.58808849  0.80442134     0.00400
C3478       C  0.60782663  0.57652879  0.82414946    -0.08000
C3479       C  0.58337223  0.55412142  0.83522449     0.62300
H3480       H  0.64315515  0.57675836  0.84862907     0.13000
H3481       H  0.62064600  0.61957161  0.78102340     0.13000
C3482       C  0.67659752  0.64782343  0.79673285     0.62600
F3483       F  0.59541775  0.54514039  0.85377995    -0.22600
F3484       F  0.57778207  0.52529651  0.82490767    -0.19900
F3485       F  0.55333189  0.57083110  0.83800559    -0.19600
F3486       F  0.70280286  0.63203381  0.78732016    -0.19600
F3487       F  0.68976836  0.66937464  0.81049717    -0.20000
F3488       F  0.65885203  0.66667184  0.78284589    -0.22600
C3489       C  0.85561990  0.56278759  0.82833753    -0.05500
C3490       C  0.83923523  0.59317213  0.82477728     0.00400
C3491       C  0.85093152  0.61469555  0.80962851    -0.08100
C3492       C  0.87854975  0.60456424  0.79814478    -0.05500
C3493       C  0.89574087  0.57460125  0.80208673     0.00400
C3494       C  0.88395595  0.55317811  0.81737748    -0.08000
C3495       C  0.90140346  0.52062217  0.82239043     0.62300
H3496       H  0.84649960  0.54707448  0.84026272     0.13000
H3497       H  0.88750343  0.62038723  0.78623001     0.13000
C3498       C  0.83514119  0.64871167  0.80625244     0.62600
F3499       F  0.88429997  0.50254483  0.83670334    -0.22600
F3500       F  0.93348779  0.52720227  0.82953096    -0.19900
F3501       F  0.90343556  0.50132860  0.80575191    -0.19600
F3502       F  0.83839032  0.66717562  0.82319189    -0.19600
F3503       F  0.80122965  0.64551254  0.80157612    -0.20000
F3504       F  0.85056265  0.66603092  0.79101433    -0.22600
C3505       C  0.64829454  0.87407418  0.81741303    -0.05500
C3506       C  0.67007132  0.89501548  0.82804048     0.00400
C3507       C  0.66202861  0.92938397  0.82909502    -0.08100
C3508       C  0.63386730  0.94172223  0.81828098    -0.05500
C3509       C  0.61266758  0.92081177  0.80733197     0.00400
C3510       C  0.61984291  0.88645899  0.80695348    -0.08000
C3511       C  0.59778167  0.86328225  0.79501841     0.62300
H3512       H  0.65446065  0.84788867  0.81680731     0.13000
H3513       H  0.62868423  0.96809951  0.81818971     0.13000
C3514       C  0.68203784  0.95408161  0.84124460     0.62600
F3515       F  0.60866356  0.83064501  0.79657830    -0.22600
F3516       F  0.59840025  0.87273340  0.77531279    -0.19900
F3517       F  0.56486760  0.86483353  0.80168206    -0.19600
F3518       F  0.70004791  0.97475802  0.82871492    -0.19600
F3519       F  0.70421345  0.93907056  0.85450275    -0.20000
F3520       F  0.66007353  0.97321031  0.85205643    -0.22600
C3521       C  0.87862863  0.91203906  0.83462560    -0.05500
C3522       C  0.85174148  0.89374518  0.82660117     0.00400
C3523       C  0.85455586  0.88189859  0.80709081    -0.08100
C3524       C  0.88156871  0.89334371  0.79545629    -0.05500
C3525       C  0.90827933  0.91214835  0.80341225     0.00400
C3526       C  0.90814381  0.91898402  0.82393634    -0.08000
C3527       C  0.93903158  0.93160669  0.83505204     0.62300
H3528       H  0.87677728  0.91981727  0.84980114     0.13000
H3529       H  0.88250207  0.88627929  0.78010459     0.13000
C3530       C  0.83086801  0.85635732  0.79818807     0.62600
F3531       F  0.93366957  0.93257253  0.85519151    -0.22600
F3532       F  0.94737470  0.96325729  0.82888976    -0.19900
F3533       F  0.96607130  0.91055528  0.83193846    -0.19600
F3534       F  0.80887341  0.87190480  0.78502972    -0.19600
F3535       F  0.81243083  0.83927996  0.81228492    -0.20000
F3536       F  0.84946940  0.83301795  0.78812784    -0.22600
C3537       C  0.63542563  0.62758121  0.04613677    -0.05500
C3538       C  0.60795819  0.64283877  0.05529909     0.00400
C3539       C  0.60671140  0.64292103  0.07613331    -0.08100
C3540       C  0.63606037  0.63502495  0.08688429    -0.05500
C3541       C  0.66463072  0.62126189  0.07787525     0.00400
C3542       C  0.66291135  0.61467089  0.05728348    -0.08000
C3543       C  0.68902689  0.59448703  0.04641599     0.62300
H3544       H  0.63568283  0.62611810  0.03018074     0.13000
H3545       H  0.63644502  0.63946390  0.10259367     0.13000
C3546       C  0.57453402  0.64971919  0.08743053     0.62600
F3547       F  0.67273878  0.57039606  0.03555692    -0.22600
F3548       F  0.71161728  0.57853943  0.05905010    -0.19900
F3549       F  0.70671324  0.61490973  0.03358183    -0.19600
F3550       F  0.54608660  0.64375324  0.07598427    -0.19600
F3551       F  0.57411359  0.68219742  0.09369482    -0.20000
F3552       F  0.57288426  0.62885490  0.10382853    -0.22600
C3553       C  0.87919616  0.69491918  0.05715937    -0.05500
C3554       C  0.89633271  0.66723040  0.04975569     0.00400
C3555       C  0.88159407  0.63531694  0.05143110    -0.08100
C3556       C  0.85199990  0.63192734  0.06261199    -0.05500
C3557       C  0.83757486  0.65915598  0.07216375     0.00400
C3558       C  0.85039608  0.69146992  0.06882962    -0.08000
C3559       C  0.83521498  0.72191516  0.07839672     0.62300
H3560       H  0.88975582  0.71939277  0.05471701     0.13000
H3561       H  0.84134762  0.60752455  0.06533037     0.13000
C3562       C  0.89783654  0.60483944  0.04256747     0.62600
F3563       F  0.83715941  0.71877448  0.09869462    -0.22600
F3564       F  0.80177655  0.72551609  0.07276819    -0.19900
F3565       F  0.85198657  0.75076227  0.07295018    -0.19600
F3566       F  0.92963269  0.59980153  0.05075672    -0.19600
F3567       F  0.90059391  0.60920707  0.02237564    -0.20000
F3568       F  0.87888654  0.57645094  0.04595028    -0.22600
C3569       C  0.64113403  0.84693774  0.04517070    -0.05500
C3570       C  0.63172653  0.81351342  0.04780855     0.00400
C3571       C  0.65126953  0.79287546  0.06084009    -0.08100
C3572       C  0.67608111  0.80756025  0.07275579    -0.05500
C3573       C  0.68403045  0.84123141  0.07083814     0.00400
C3574       C  0.66774560  0.86095195  0.05616102    -0.08000
C3575       C  0.67873119  0.89645524  0.05214349     0.62300
H3576       H  0.62707085  0.86233343  0.03475376     0.13000
H3577       H  0.68951158  0.79278825  0.08381377     0.13000
C3578       C  0.64685994  0.75549713  0.06230101     0.62600
F3579       F  0.66097482  0.91071749  0.03647534    -0.22600
F3580       F  0.71273187  0.89688194  0.04755005    -0.19900
F3581       F  0.67353881  0.91555842  0.06860084    -0.19600
F3582       F  0.64178238  0.74237292  0.04376674    -0.19600
F3583       F  0.61973617  0.74817656  0.07426522    -0.20000
F3584       F  0.67531084  0.74021276  0.07038563    -0.22600
C3585       C  0.89724778  0.85425611  0.04843960    -0.05500
C3586       C  0.91609663  0.82722283  0.05620346     0.00400
C3587       C  0.90898595  0.81586645  0.07579874    -0.08100
C3588       C  0.88030047  0.82821267  0.08530940    -0.05500
C3589       C  0.86073368  0.85391185  0.07710429     0.00400
C3590       C  0.87052289  0.86872509  0.05900903    -0.08000
C3591       C  0.85353663  0.90022815  0.05135006     0.62300
H3592       H  0.90347255  0.86417322  0.03401398     0.13000
H3593       H  0.87310952  0.81824575  0.09960760     0.13000
C3594       C  0.93165401  0.79188618  0.08732284     0.62600
F3595       F  0.87011305  0.91344886  0.03513721    -0.22600
F3596       F  0.85377296  0.92389232  0.06593531    -0.19900
F3597       F  0.82048718  0.89366149  0.04594272    -0.19600
F3598       F  0.96509885  0.80152102  0.08574457    -0.19600
F3599       F  0.92750516  0.76023090  0.08029567    -0.20000
F3600       F  0.92399698  0.79108240  0.10722805    -0.22600
C3601       C  0.62791312  0.79033973  0.92711347    -0.05500
C3602       C  0.61315463  0.81505258  0.93873447     0.00400
C3603       C  0.62638547  0.84779923  0.93761500    -0.08100
C3604       C  0.65337232  0.85441702  0.92459620    -0.05500
C3605       C  0.66769852  0.82945681  0.91304379     0.00400
C3606       C  0.65492359  0.79668353  0.91442695    -0.08000
C3607       C  0.66977018  0.76806484  0.90285706     0.62300
H3608       H  0.61814228  0.76540142  0.92790077     0.13000
H3609       H  0.66394172  0.87916143  0.92345891     0.13000
C3610       C  0.61200582  0.87577996  0.94967015     0.62600
F3611       F  0.66299303  0.77273427  0.88297053    -0.22600
F3612       F  0.65617439  0.73769037  0.90843452    -0.19900
F3613       F  0.70432034  0.76622204  0.90600490    -0.19600
F3614       F  0.61554835  0.86830496  0.96955266    -0.19600
F3615       F  0.57816471  0.88017090  0.94501358    -0.20000
F3616       F  0.62851102  0.90554247  0.94603570    -0.22600
C3617       C  0.89887636  0.85532757  0.94028208    -0.05500
C3618       C  0.89505499  0.82549173  0.95089909     0.00400
C3619       C  0.86327183  0.80971377  0.95123043    -0.08100
C3620       C  0.83833536  0.82021758  0.93763708    -0.05500
C3621       C  0.84285814  0.84864653  0.92558871     0.00400
C3622       C  0.87236325  0.86826086  0.92841543    -0.08000
C3623       C  0.87603245  0.90280300  0.91940966     0.62300
H3624       H  0.92299763  0.86802273  0.94085556     0.13000
H3625       H  0.81538329  0.80582422  0.93614885     0.13000
C3626       C  0.85560093  0.78294430  0.96653418     0.62600
F3627       F  0.89848843  0.92155809  0.93035931    -0.22600
F3628       F  0.84523987  0.91917178  0.91919607    -0.19900
F3629       F  0.88806086  0.90104256  0.90040027    -0.19600
F3630       F  0.86393629  0.79438621  0.98509539    -0.19600
F3631       F  0.87421822  0.75476290  0.96302574    -0.20000
F3632       F  0.82167722  0.77453963  0.96649749    -0.22600
C3633       C  0.66636628  0.66517595  0.93481237    -0.05500
C3634       C  0.66379884  0.63730473  0.92272679     0.00400
C3635       C  0.63485002  0.61660471  0.92396180    -0.08100
C3636       C  0.60810730  0.62621031  0.93621975    -0.05500
C3637       C  0.60998670  0.65516329  0.94736713     0.00400
C3638       C  0.64000593  0.67420110  0.94742384    -0.08000
C3639       C  0.64436382  0.70336265  0.96113712     0.62300
H3640       H  0.68901706  0.68019950  0.93396794     0.13000
H3641       H  0.58496228  0.61187111  0.93659617     0.13000
C3642       C  0.63211628  0.58463337  0.91240482     0.62600
F3643       F  0.67594013  0.71782449  0.95934899    -0.22600
F3644       F  0.64062959  0.69251748  0.98045308    -0.19900
F3645       F  0.62039680  0.72743836  0.95699911    -0.19600
F3646       F  0.60490516  0.56560748  0.91849787    -0.19600
F3647       F  0.66114192  0.56583719  0.91514005    -0.20000
F3648       F  0.62781981  0.59163600  0.89252999    -0.22600
C3649       C  0.86724190  0.67706360  0.94309420    -0.05500
C3650       C  0.89119339  0.65335175  0.94925475     0.00400
C3651       C  0.88837895  0.62017042  0.94275169    -0.08100
C3652       C  0.86127384  0.61214326  0.93011066    -0.05500
C3653       C  0.83801342  0.63634013  0.92358821     0.00400
C3654       C  0.84088980  0.66940851  0.93007901    -0.08000
C3655       C  0.81762948  0.69694734  0.92238824     0.62300
H3656       H  0.87038517  0.70226984  0.94785089     0.13000
H3657       H  0.85851018  0.58713122  0.92467909     0.13000
C3658       C  0.91443390  0.59379385  0.94821999     0.62600
F3659       F  0.78450688  0.69009303  0.92725410    -0.22600
F3660       F  0.82024251  0.69966438  0.90210159    -0.19900
F3661       F  0.82580924  0.72746515  0.93026059    -0.19600
F3662       F  0.91261428  0.58645506  0.96815068    -0.19600
F3663       F  0.94656375  0.60496216  0.94372736    -0.20000
F3664       F  0.90903911  0.56465611  0.93808904    -0.22600
C3665       C  0.86791751  0.89137931  0.18065997    -0.05500
C3666       C  0.84819824  0.91584705  0.17101405     0.00400
C3667       C  0.85556063  0.94971609  0.17404231    -0.08100
C3668       C  0.88292521  0.95797111  0.18643180    -0.05500
C3669       C  0.90348910  0.93368908  0.19576048     0.00400
C3670       C  0.89528316  0.89962838  0.19323562    -0.08000
C3671       C  0.91426628  0.87201811  0.20408348     0.62300
H3672       H  0.86194506  0.86560088  0.17794723     0.13000
H3673       H  0.88834266  0.98383963  0.18903416     0.13000
C3674       C  0.83453229  0.97699511  0.16415940     0.62600
F3675       F  0.89839486  0.84161988  0.20203771    -0.22600
F3676       F  0.91612622  0.87869439  0.22401959    -0.19900
F3677       F  0.94643101  0.86917920  0.19654927    -0.19600
F3678       F  0.80148034  0.97485096  0.17049625    -0.19600
F3679       F  0.83514195  0.97371714  0.14389258    -0.20000
F3680       F  0.84648713  0.00832393  0.16858094    -0.22600
C3681       C  0.62286402  0.90111124  0.18649800    -0.05500
C3682       C  0.61339682  0.93453732  0.18366594     0.00400
C3683       C  0.63146642  0.95443710  0.16983229    -0.08100
C3684       C  0.66051152  0.94142092  0.16109986    -0.05500
C3685       C  0.67056352  0.90841859  0.16423484     0.00400
C3686       C  0.65083420  0.88740310  0.17655655    -0.08000
C3687       C  0.65933192  0.85083882  0.17911689     0.62300
H3688       H  0.60890813  0.88613138  0.19702561     0.13000
H3689       H  0.67486581  0.95688182  0.15095575     0.13000
C3690       C  0.62109654  0.98940853  0.16349364     0.62600
F3691       F  0.63735984  0.83494043  0.19192964    -0.22600
F3692       F  0.69177191  0.84718297  0.18658848    -0.19900
F3693       F  0.65719800  0.83538781  0.16108125    -0.19600
F3694       F  0.64367108  0.01194865  0.17132830    -0.19600
F3695       F  0.58873120  0.99754646  0.16927502    -0.20000
F3696       F  0.62187639  0.99218659  0.14311515    -0.22600
C3697       C  0.89350888  0.61639260  0.19881695    -0.05500
C3698       C  0.91487062  0.59093604  0.19257405     0.00400
C3699       C  0.90892823  0.57583190  0.17418936    -0.08100
C3700       C  0.87995096  0.58505972  0.16320215    -0.05500
C3701       C  0.85760061  0.60967947  0.16977331     0.00400
C3702       C  0.86512647  0.62653764  0.18750900    -0.08000
C3703       C  0.84358186  0.65529041  0.19437071     0.62300
H3704       H  0.89843975  0.62727499  0.21306652     0.13000
H3705       H  0.87450324  0.57321632  0.14929723     0.13000
C3706       C  0.93376338  0.55066675  0.16614368     0.62600
F3707       F  0.85692253  0.66960888  0.21116012    -0.22600
F3708       F  0.81134451  0.64449298  0.19871203    -0.19900
F3709       F  0.84181245  0.67947180  0.17968173    -0.19600
F3710       F  0.93302108  0.02631177  0.18292097    -0.19600
F3711       F  0.96514106  0.56541724  0.16418190    -0.20000
F3712       F  0.92020939  0.03869815  0.15146866    -0.22600
C3713       C  0.61648605  0.61333555  0.18202281    -0.05500
C3714       C  0.62197794  0.59954887  0.20075692     0.00400
C3715       C  0.65531856  0.59904185  0.20860006    -0.08100
C3716       C  0.68246423  0.60383806  0.19568248    -0.05500
C3717       C  0.67711232  0.61089542  0.17548043     0.00400
C3718       C  0.64390299  0.62219255  0.16999706    -0.08000
C3719       C  0.63610215  0.64556460  0.15277298     0.62300
H3720       H  0.59080217  0.61707741  0.17669276     0.13000
H3721       H  0.70756013  0.60246362  0.20186207     0.13000
C3722       C  0.66342673  0.59352788  0.23035567     0.62600
F3723       F  0.61812884  0.67252039  0.15958487    -0.22600
F3724       F  0.61633028  0.62954621  0.13898035    -0.19900
F3725       F  0.66488106  0.65787166  0.14388894    -0.19600
F3726       F  0.67788280  0.56248846  0.23315463    -0.19600
F3727       F  0.63515105  0.59606216  0.24210848    -0.20000
F3728       F  0.68616500  0.61738933  0.23652098    -0.22600
C3729       C  0.55845617  0.61977456  0.67668273    -0.05500
C3730       C  0.57913774  0.61140610  0.69313020     0.00400
C3731       C  0.60801287  0.63149738  0.69709461    -0.08100
C3732       C  0.61551402  0.65788204  0.68395718    -0.05500
C3733       C  0.59514290  0.66514271  0.66747444     0.00400
C3734       C  0.56556146  0.64660545  0.66400852    -0.08000
C3735       C  0.54153858  0.65517008  0.64700819     0.62300
H3736       H  0.53636664  0.60491016  0.67352938     0.13000
H3737       H  0.63773785  0.67306780  0.68623719     0.13000
C3738       C  0.63128998  0.62565784  0.71468796     0.62600
F3739       F  0.51183503  0.63708401  0.64802765    -0.22600
F3740       F  0.55673963  0.64840694  0.62924153    -0.19900
F3741       F  0.53309942  0.68850714  0.64742521    -0.19600
F3742       F  0.64590848  0.59452853  0.71357136    -0.19600
F3743       F  0.61316016  0.62867597  0.73192268    -0.20000
F3744       F  0.65731711  0.64856288  0.71537626    -0.22600
C3745       C  0.56897718  0.88110909  0.67859764    -0.05500
C3746       C  0.59094978  0.89167182  0.69377013     0.00400
C3747       C  0.62298208  0.87559582  0.69594997    -0.08100
C3748       C  0.63089107  0.84922325  0.68322027    -0.05500
C3749       C  0.60829310  0.83886379  0.66851362     0.00400
C3750       C  0.57685258  0.85500434  0.66606495    -0.08000
C3751       C  0.55132328  0.84433722  0.65044447     0.62300
H3752       H  0.54490079  0.89343587  0.67649489     0.13000
H3753       H  0.65489198  0.83635893  0.68455794     0.13000
C3754       C  0.64911807  0.88594577  0.71112326     0.62600
F3755       F  0.52318851  0.86484545  0.64972170    -0.22600
F3756       F  0.54044928  0.81240192  0.65457874    -0.19900
F3757       F  0.56585994  0.84523113  0.63199417    -0.19600
F3758       F  0.63725714  0.87902930  0.72985545    -0.19600
F3759       F  0.65595183  0.91947199  0.70894359    -0.20000
F3760       F  0.67937709  0.86903875  0.70904949    -0.22600
C3761       C  0.93360191  0.66103502  0.68032777    -0.05500
C3762       C  0.90321137  0.65995713  0.66948177     0.00400
C3763       C  0.88166299  0.63191597  0.67186560    -0.08100
C3764       C  0.89375909  0.60413583  0.68270917    -0.05500
C3765       C  0.92489459  0.60490734  0.69272772     0.00400
C3766       C  0.94380570  0.63467049  0.69283480    -0.08000
C3767       C  0.97296147  0.63951106  0.70721643     0.62300
H3768       H  0.94931777  0.68294276  0.67898661     0.13000
H3769       H  0.87873774  0.58164154  0.68335692     0.13000
C3770       C  0.84590382  0.63005677  0.66363087     0.62600
F3771       F  0.98683338  0.67096083  0.70546225    -0.22600
F3772       F  0.99829524  0.61672493  0.70417288    -0.19900
F3773       F  0.47253661  0.61631948  0.72225213    -0.19600
F3774       F  0.84459140  0.60686632  0.64881497    -0.19600
F3775       F  0.83430588  0.66019713  0.65623655    -0.20000
F3776       F  0.82420151  0.62019894  0.67851459    -0.22600
C3777       C  0.94200037  0.83311882  0.68290866    -0.05500
C3778       C  0.91311255  0.83425646  0.67074884     0.00400
C3779       C  0.89041114  0.86146849  0.67218750    -0.08100
C3780       C  0.90000836  0.88894685  0.68361864    -0.05500
C3781       C  0.93044685  0.88893145  0.69440041     0.00400
C3782       C  0.95042544  0.85971159  0.69526443    -0.08000
C3783       C  0.97985532  0.85640366  0.70966453     0.62300
H3784       H  0.95832822  0.81153144  0.68232456     0.13000
H3785       H  0.88439063  0.91107987  0.68360868     0.13000
C3786       C  0.85603377  0.86121515  0.66196267     0.62600
F3787       F  0.47485569  0.82394957  0.71428397    -0.22600
F3788       F  0.96930413  0.86469960  0.72835802    -0.19900
F3789       F  0.49978680  0.85656898  0.69154853    -0.19600
F3790       F  0.84021831  0.83109288  0.66548553    -0.19600
F3791       F  0.85946922  0.86599366  0.64187157    -0.20000
F3792       F  0.83523915  0.88605435  0.66886971    -0.22600
C3793       C  0.80261848  0.62678507  0.56942423    -0.05500
C3794       C  0.81906781  0.61636640  0.55222068     0.00400
C3795       C  0.84713535  0.63521725  0.54524802    -0.08100
C3796       C  0.85906435  0.66182827  0.55668539    -0.05500
C3797       C  0.84350709  0.67052839  0.57435559     0.00400
C3798       C  0.81395721  0.65381014  0.58043391    -0.08000
C3799       C  0.79398953  0.66494870  0.59825330     0.62300
H3800       H  0.78071791  0.61350054  0.57458346     0.13000
H3801       H  0.88127893  0.67562005  0.55222560     0.13000
C3802       C  0.86472831  0.62765299  0.52602462     0.62600
F3803       F  0.76525966  0.64594863  0.60115680    -0.22600
F3804       F  0.78399982  0.69763695  0.59548932    -0.19900
F3805       F  0.81352298  0.66235025  0.61518069    -0.19600
F3806       F  0.84130744  0.62729834  0.51075308    -0.19600
F3807       F  0.88086283  0.59721714  0.52758851    -0.20000
F3808       F  0.88882647  0.65131058  0.52129150    -0.22600
C3809       C  0.85979797  0.88089758  0.54699268    -0.05500
C3810       C  0.83942398  0.90338604  0.55722619     0.00400
C3811       C  0.83477435  0.89832152  0.57780703    -0.08100
C3812       C  0.84504862  0.86808078  0.58645667    -0.05500
C3813       C  0.86426843  0.84492099  0.57614428     0.00400
C3814       C  0.87361866  0.85230945  0.55640224    -0.08000
C3815       C  0.89881479  0.83095635  0.54555196     0.62300
H3816       H  0.86441884  0.88554635  0.53146898     0.13000
H3817       H  0.83941216  0.86310364  0.60184945     0.13000
C3818       C  0.82185617  0.92487623  0.59153171     0.62600
F3819       F  0.88429664  0.80109454  0.54049873    -0.22600
F3820       F  0.92686432  0.82489589  0.55741990    -0.19900
F3821       F  0.90974177  0.84654007  0.52841495    -0.19600
F3822       F  0.78805564  0.91952284  0.59546289    -0.19600
F3823       F  0.82621401  0.95648706  0.58369185    -0.20000
F3824       F  0.83970613  0.92356244  0.60921077    -0.22600
C3825       C  0.68248989  0.63636161  0.55041503    -0.05500
C3826       C  0.65701959  0.61335083  0.54615251     0.00400
C3827       C  0.62391917  0.61812383  0.55328826    -0.08100
C3828       C  0.61750771  0.64611743  0.56480435    -0.05500
C3829       C  0.64337433  0.66838283  0.56973740     0.00400
C3830       C  0.67641203  0.66378792  0.56235375    -0.08000
C3831       C  0.70544165  0.68685775  0.56757241     0.62300
H3832       H  0.70767047  0.63191981  0.54484127     0.13000
H3833       H  0.59262329  0.65006115  0.57089995     0.13000
C3834       C  0.59629965  0.59262796  0.54998291     0.62600
F3835       F  0.73626818  0.67424588  0.56167306    -0.22600
F3836       F  0.70712712  0.69125828  0.58774497    -0.19900
F3837       F  0.70077653  0.71731426  0.55826971    -0.19600
F3838       F  0.60683247  0.56189930  0.55714261    -0.19600
F3839       F  0.58909499  0.59047584  0.53006929    -0.20000
F3840       F  0.56671944  0.60091790  0.55950563    -0.22600
C3841       C  0.68008616  0.83933694  0.56203622    -0.05500
C3842       C  0.64807836  0.83951952  0.57071096     0.00400
C3843       C  0.62434943  0.86462557  0.56552472    -0.08100
C3844       C  0.63454225  0.89038262  0.55269540    -0.05500
C3845       C  0.66739266  0.89131316  0.54519755     0.00400
C3846       C  0.68996140  0.86463514  0.54893093    -0.08000
C3847       C  0.72513046  0.86328711  0.54018980     0.62300
H3848       H  0.69768354  0.81956111  0.56592806     0.13000
H3849       H  0.61768446  0.91102160  0.54941544     0.13000
C3850       C  0.58884867  0.86452624  0.57383224     0.62600
F3851       F  0.73472831  0.83070751  0.53713093    -0.22600
F3852       F  0.74788758  0.87749307  0.55310891    -0.19900
F3853       F  0.72648249  0.87985329  0.52216365    -0.19600
F3854       F  0.59015905  0.86850330  0.59402388    -0.19600
F3855       F  0.57318537  0.83473317  0.56968084    -0.20000
F3856       F  0.56926191  0.88997714  0.56581140    -0.22600
C3857       C  0.63187539  0.62669677  0.30115712    -0.05500
C3858       C  0.60305146  0.60991785  0.30806336     0.00400
C3859       C  0.58835566  0.61997027  0.32598553    -0.08100
C3860       C  0.60157311  0.64771492  0.33572562    -0.05500
C3861       C  0.62941099  0.66557996  0.32845988     0.00400
C3862       C  0.64589263  0.65396775  0.31133416    -0.08000
C3863       C  0.67799601  0.66919255  0.30318591     0.62300
H3864       H  0.64307130  0.61898722  0.28742100     0.13000
H3865       H  0.58940934  0.65641902  0.34894802     0.13000
C3866       C  0.55754540  0.60261998  0.33438815     0.62600
F3867       F  0.70153580  0.64434769  0.30020532    -0.22600
F3868       F  0.69251310  0.69203346  0.31567193    -0.19900
F3869       F  0.67082279  0.68475648  0.28530614    -0.19600
F3870       F  0.55310595  0.61004546  0.35406953    -0.19600
F3871       F  0.56097317  0.56852221  0.33309278    -0.20000
F3872       F  0.03890423  0.59206435  0.32810239    -0.22600
C3873       C  0.65147692  0.86247103  0.31123651    -0.05500
C3874       C  0.62655142  0.84359456  0.32098623     0.00400
C3875       C  0.59242609  0.85430473  0.32006494    -0.08100
C3876       C  0.58452410  0.88342331  0.30940535    -0.05500
C3877       C  0.60906676  0.90211283  0.29936095     0.00400
C3878       C  0.64336606  0.89196263  0.30054729    -0.08000
C3879       C  0.67114063  0.91199413  0.29076332     0.62300
H3880       H  0.67753076  0.85438091  0.31262867     0.13000
H3881       H  0.55844292  0.89161004  0.30842599     0.13000
C3882       C  0.56412181  0.83523125  0.33020997     0.62600
F3883       F  0.70245242  0.89692297  0.29308421    -0.22600
F3884       F  0.67293208  0.94297045  0.29920576    -0.19900
F3885       F  0.66452826  0.91554496  0.27077297    -0.19600
F3886       F  0.57018486  0.83323573  0.35030148    -0.19600
F3887       F  0.56181688  0.80361074  0.32277233    -0.20000
F3888       F  0.03455587  0.85700034  0.33604495    -0.22600
C3889       C  0.68431759  0.64807014  0.44888438    -0.05500
C3890       C  0.66219373  0.62086183  0.44860278     0.00400
C3891       C  0.63033508  0.62399435  0.43902165    -0.08100
C3892       C  0.62313980  0.65343949  0.42833527    -0.05500
C3893       C  0.64662783  0.67941633  0.42720066     0.00400
C3894       C  0.67686080  0.67771588  0.43849780    -0.08000
C3895       C  0.70167279  0.70651683  0.43890234     0.62300
H3896       H  0.70822426  0.64535241  0.45667713     0.13000
H3897       H  0.60010145  0.65560316  0.41963910     0.13000
C3898       C  0.60500559  0.59575079  0.43903739     0.62600
F3899       F  0.73053038  0.69868979  0.44972644    -0.22600
F3900       F  0.68670055  0.73364896  0.44750316    -0.19900
F3901       F  0.71130404  0.71517594  0.41995091    -0.19600
F3902       F  0.59473655  0.58918565  0.45814206    -0.19600
F3903       F  0.61962078  0.56755428  0.43140759    -0.20000
F3904       F  0.57656613  0.60340258  0.42776219    -0.22600
C3905       C  0.67101816  0.84332674  0.43542177    -0.05500
C3906       C  0.64586491  0.84879475  0.42092385     0.00400
C3907       C  0.62902687  0.87996389  0.41988605    -0.08100
C3908       C  0.64153088  0.90602257  0.43136800    -0.05500
C3909       C  0.66813190  0.90089870  0.44483298     0.00400
C3910       C  0.68151218  0.86875527  0.44798246    -0.08000
C3911       C  0.70605855  0.86147563  0.46484587     0.62300
H3912       H  0.68298426  0.81913348  0.43651688     0.13000
H3913       H  0.63057837  0.93063900  0.42971084     0.13000
C3914       C  0.59812865  0.88705776  0.40704937     0.62600
F3915       F  0.71476985  0.82817736  0.46598024    -0.22600
F3916       F  0.69126359  0.87004162  0.48246579    -0.19900
F3917       F  0.73523950  0.87972885  0.46249789    -0.19600
F3918       F  0.58501180  0.85887964  0.39849112    -0.19600
F3919       F  0.60643255  0.90965833  0.39231139    -0.20000
F3920       F  0.57302015  0.90065474  0.41851091    -0.22600
C3921       C  0.89177274  0.65349373  0.31769032    -0.05500
C3922       C  0.91517634  0.67044420  0.32966068     0.00400
C3923       C  0.94797017  0.65687956  0.33241196    -0.08100
C3924       C  0.95679120  0.62796438  0.32221087    -0.05500
C3925       C  0.93362379  0.61089121  0.31022081     0.00400
C3926       C  0.90018700  0.62338055  0.30830673    -0.08000
C3927       C  0.87342874  0.60479084  0.29679425     0.62300
H3928       H  0.86630839  0.66330400  0.31654364     0.13000
H3929       H  0.98229278  0.61844076  0.32342141     0.13000
C3930       C  0.97344103  0.67270039  0.34632550     0.62600
F3931       F  0.84307946  0.62193554  0.29594102    -0.22600
F3932       F  0.86764494  0.57442991  0.30595930    -0.19900
F3933       F  0.88398980  0.59985140  0.27766852    -0.19600
F3934       F  0.96051777  0.67357430  0.36519725    -0.19600
F3935       F  0.98044949  0.70471998  0.33999888    -0.20000
F3936       F  0.00358946  0.65519877  0.34722471    -0.22600
C3937       C  0.95304988  0.89442341  0.32514617    -0.05500
C3938       C  0.93526833  0.90496248  0.30815164     0.00400
C3939       C  0.90584385  0.88743246  0.30235844    -0.08100
C3940       C  0.89588041  0.85909735  0.31347191    -0.05500
C3941       C  0.91399786  0.84836026  0.33033665     0.00400
C3942       C  0.94239930  0.86702686  0.33671433    -0.08000
C3943       C  0.96163806  0.85783775  0.35557758     0.62300
H3944       H  0.97577660  0.90777455  0.32918414     0.13000
H3945       H  0.87363060  0.84521320  0.30921414     0.13000
C3946       C  0.88543391  0.89840734  0.28437701     0.62600
F3947       F  0.49646706  0.87734828  0.35819420    -0.22600
F3948       F  0.97389009  0.82573609  0.35439097    -0.19900
F3949       F  0.94072429  0.86000051  0.37169473    -0.19600
F3950       F  0.90532001  0.89719433  0.26772841    -0.19600
F3951       F  0.87414589  0.93058451  0.28685486    -0.20000
F3952       F  0.85748993  0.87836545  0.28141519    -0.22600
C3953       C  0.87765985  0.65255347  0.43602902    -0.05500
C3954       C  0.85387569  0.67122892  0.42507753     0.00400
C3955       C  0.81923520  0.66292631  0.42614842    -0.08100
C3956       C  0.80940023  0.63656626  0.43863784    -0.05500
C3957       C  0.83299908  0.61715380  0.44939210     0.00400
C3958       C  0.86798644  0.62515493  0.44799865    -0.08000
C3959       C  0.89531248  0.60442625  0.45816927     0.62300
H3960       H  0.90407232  0.65917337  0.43465579     0.13000
H3961       H  0.78285843  0.63025546  0.43964840     0.13000
C3962       C  0.79283487  0.68115735  0.41361385     0.62600
F3963       F  0.92732207  0.61316413  0.45183810    -0.22600
F3964       F  0.89073212  0.57115047  0.45413518    -0.19900
F3965       F  0.89430111  0.60924612  0.47827510    -0.19600
F3966       F  0.79998880  0.67801765  0.39382030    -0.19600
F3967       F  0.79254243  0.71446358  0.41825557    -0.20000
F3968       F  0.76078218  0.66847954  0.41657558    -0.22600
C3969       C  0.87749165  0.86415395  0.43228571    -0.05500
C3970       C  0.85187645  0.84428895  0.42420186     0.00400
C3971       C  0.81768255  0.85171133  0.42817375    -0.08100
C3972       C  0.81033060  0.87910011  0.44006582    -0.05500
C3973       C  0.83576100  0.89914934  0.44829592     0.00400
C3974       C  0.87008679  0.89175272  0.44416802    -0.08000
C3975       C  0.89872229  0.91374487  0.45120235     0.62300
H3976       H  0.90345039  0.85823453  0.42876970     0.13000
H3977       H  0.78430992  0.88586794  0.44242251     0.13000
C3978       C  0.78905845  0.83163896  0.41917640     0.62600
F3979       F  0.92915187  0.90544303  0.44260304    -0.22600
F3980       F  0.90257873  0.91024291  0.47139255    -0.19900
F3981       F  0.89188964  0.94661180  0.44637299    -0.19600
F3982       F  0.75772276  0.84202148  0.42563137    -0.19600
F3983       F  0.79266719  0.79844430  0.42427660    -0.20000
F3984       F  0.78950141  0.83501760  0.39885700    -0.22600
loop_ 
_geom_bond_atom_site_label_1 
_geom_bond_atom_site_label_2 
_geom_bond_distance 
_geom_bond_site_symmetry_2 
_ccdc_geom_bond_type 
N1            C6   1.356       .  A
N1            C5   1.351       .  A
N1           H33   1.039       .  S
N2            C9   1.354       .  A
N2           C10   1.356       .  A
N3            C8   1.353       .  A
N3            C7   1.355       .  A
N3           H34   1.040       .  S
N4           C11   1.352       .  A
N4           C12   1.349       .  A
C5           C13   1.387       .  A
C5           C21   1.416       .  A
C6           C22   1.419       .  A
C6           C14   1.387       .  A
C7           C15   1.387       .  A
C7           C24   1.417       .  A
C8           C23   1.419       .  A
C8           C16   1.388       .  A
C9           C21   1.422       .  A
C9           C17   1.387       .  A
C10          C24   1.421       .  A
C10          C18   1.386       .  A
C11          C19   1.385       .  A
C11          C22   1.414       .  A
C12          C20   1.387       .  A
C12          C23   1.412       .  A
C13          C14   1.374       .  A
C13          H25   1.082       .  S
C14          H26   1.082       .  S
C15          C16   1.373       .  A
C15          H27   1.082       .  S
C16          H28   1.082       .  S
C17          C18   1.379       .  A
C17          H29   1.082       .  S
C18          H30   1.082       .  S
C19          C20   1.375       .  A
C19          H31   1.082       .  S
C20          H32   1.082       .  S
C21         C953   1.494       .  S
C22         C982   1.499       .  S
C23         C966   1.485       .  S
C24         C934   1.500       .  S
N35          C40   1.353       .  A
N35          C39   1.353       .  A
N35          H67   1.041       .  S
N36          C43   1.341       .  A
N36          C44   1.343       .  A
N37          C42   1.348       .  A
N37          C41   1.353       .  A
N37          H68   1.042       .  S
N38          C45   1.355       .  A
N38          C46   1.354       .  A
C39          C47   1.389       .  A
C39          C55   1.419       .  A
C40          C56   1.415       .  A
C40          C48   1.386       .  A
C41          C49   1.386       .  A
C41          C58   1.413       .  A
C42          C57   1.408       .  A
C42          C50   1.387       .  A
C43          C55   1.400       .  A
C43          C51   1.387       .  A
C44          C58   1.402       .  A
C44          C52   1.386       .  A
C45          C53   1.386       .  A
C45          C56   1.422       .  A
C46          C54   1.385       .  A
C46          C57   1.419       .  A
C47          C48   1.377       .  A
C47          H59   1.082       .  S
C48          H60   1.082       .  S
C49          C50   1.376       .  A
C49          H61   1.082       .  S
C50          H62   1.081       .  S
C51          C52   1.377       .  A
C51          H63   1.082       .  S
C52          H64   1.082       .  S
C53          C54   1.382       .  A
C53          H65   1.081       .  S
C54          H66   1.082       .  S
C55         C905   1.477       .  S
C56         C873   1.508       .  S
C57         C886   1.492       .  S
C58         C918   1.481       .  S
C69          N87   1.344       .  A
C69         C106   1.455       .  S
C69         C921   1.463       .  S
N70          N87   1.325       .  A
N70          N92   1.320       .  A
N70       Co1103   2.074       .  S
C71          N96   1.343       .  A
C71         H116   1.077       .  S
C71         C109   1.469       .  S
H72         C113   1.077       .  S
C73          N97   1.334       .  A
C73         H102   1.081       .  S
C73          C77   1.453       .  S
Co74        N114   2.080       .  S
Co74         N90   2.070       .  S
Co74       N1088   2.082   1_545  S
Co74       N1078   2.081   1_545  S
Co74       Cl118   2.435       .  S
N75         C113   1.351       .  A
N75          N82   1.320       .  A
N75       Co1072   2.123       .  S
Co76         N96   2.090       .  S
Co76         N83   2.097       .  S
Co76       N1071   2.102   1_545  S
Co76       N1075   2.104   1_545  S
Co76       Cl118   2.472       .  S
C77         N115   1.352       .  A
C77         C822   1.475       .  S
N78          N85   1.319       .  A
N78         N108   1.321       .  A
N78       Co1107   2.074       .  S
N79          N97   1.319       .  A
N79         N115   1.328       .  A
N79       Co1072   2.089       .  S
N80         C109   1.348       .  A
N80          N90   1.319       .  A
H81         C106   1.081       .  S
N82         N103   1.324       .  A
N82       Co1070   2.088       .  S
N83         N101   1.318       .  A
N83          N88   1.329       .  A
C84          N88   1.356       .  A
C84         C112   1.466       .  S
C84         C806   1.505       .  S
N85         C100   1.344       .  A
N85       Co1103   2.086       .  S
C86         N114   1.338       .  A
C86         H120   1.081       .  S
C86          C89   1.452       .  S
C89         N110   1.344       .  A
C89         C902   1.462       .  S
N90          N96   1.317       .  A
N91         C117   1.344       .  A
N91          N93   1.317       .  A
N91        Co107   2.080       .  S
N92         C106   1.339       .  A
N92       Co1070   2.085       .  S
N93         N121   1.317       .  A
N93        Co111   2.059       .  S
H94         C117   1.081       .  S
H95         C112   1.080       .  S
N97       Co1107   2.068       .  S
N98         N110   1.323       .  A
N98         N114   1.320       .  A
N98        Co107   2.070       .  S
C99         N103   1.351       .  A
C99         C113   1.481       .  S
C99         C985   1.508       .  S
C100        H104   1.081       .  S
C100        C119   1.458       .  S
N101        C112   1.338       .  A
N101       Co111   2.090       .  S
C105        N121   1.342       .  A
C105        C117   1.460       .  S
C105        C838   1.462       .  S
Co107      N1066   2.079   1_545  S
Co107      N1081   2.084   1_545  S
Co107      Cl118   2.470       .  S
N108        C119   1.345       .  A
C109        C969   1.487       .  S
Co111      N1074   2.082   1_545  S
Co111      N1093   2.064   1_545  S
Co111      Cl118   2.424       .  S
C119        C857   1.465       .  S
N122        C127   1.352       .  A
N122        C126   1.353       .  A
N122        H154   1.043       .  S
N123        C130   1.348       .  A
N123        C131   1.350       .  A
N124        C129   1.349       .  A
N124        C128   1.352       .  A
N124        H155   1.048       .  S
N125        C132   1.350       .  A
N125        C133   1.349       .  A
C126        C134   1.387       .  A
C126        C142   1.418       .  A
C127        C143   1.420       .  A
C127        C135   1.388       .  A
C128        C136   1.387       .  A
C128        C145   1.416       .  A
C129        C144   1.411       .  A
C129        C137   1.386       .  A
C130        C142   1.412       .  A
C130        C138   1.386       .  A
C131        C145   1.412       .  A
C131        C139   1.385       .  A
C132        C140   1.386       .  A
C132        C143   1.412       .  A
C133        C141   1.386       .  A
C133        C144   1.410       .  A
C134        C135   1.380       .  A
C134        H146   1.082       .  S
C135        H147   1.083       .  S
C136        C137   1.382       .  A
C136        H148   1.082       .  S
C137        H149   1.082       .  S
C138        C139   1.378       .  A
C138        H150   1.082       .  S
C139        H151   1.082       .  S
C140        C141   1.381       .  A
C140        H152   1.083       .  S
C141        H153   1.082       .  S
C142        C790   1.494       .  S
C143        C825   1.498       .  S
C144        C809   1.489       .  S
C145        C774   1.499       .  S
N156        C161   1.349       .  A
N156        C160   1.351       .  A
N156        H188   1.039       .  S
N157        C164   1.346       .  A
N157        C165   1.345       .  A
N158        C163   1.353       .  A
N158        C162   1.355       .  A
N158        H189   1.038       .  S
N159        C166   1.352       .  A
N159        C167   1.351       .  A
C160        C168   1.388       .  A
C160        C176   1.413       .  A
C161        C177   1.408       .  A
C161        C169   1.385       .  A
C162        C170   1.387       .  A
C162        C179   1.417       .  A
C163        C178   1.416       .  A
C163        C171   1.387       .  A
C164        C176   1.404       .  A
C164        C172   1.386       .  A
C165        C179   1.406       .  A
C165        C173   1.387       .  A
C166        C174   1.385       .  A
C166        C177   1.413       .  A
C167        C175   1.386       .  A
C167        C178   1.413       .  A
C168        C169   1.376       .  A
C168        H180   1.082       .  S
C169        H181   1.082       .  S
C170        C171   1.376       .  A
C170        H182   1.082       .  S
C171        H183   1.082       .  S
C172        C173   1.372       .  A
C172        H184   1.082       .  S
C173        H185   1.082       .  S
C174        C175   1.373       .  A
C174        H186   1.082       .  S
C175        H187   1.082       .  S
C176        C841   1.478       .  S
C177        C745   1.487       .  S
C178        C761   1.488       .  S
C179        C854   1.483       .  S
C190        N208   1.342       .  A
C190        C227   1.476       .  S
C190        C937   1.489       .  S
N191        N208   1.320       .  A
N191        N213   1.323       .  A
N191      Co2220   2.077       .  S
C192        N217   1.353       .  A
C192        H237   1.079       .  S
C192        C230   1.480       .  S
H193        C234   1.082       .  S
C194        N218   1.353       .  A
C194        H223   1.079       .  S
C194        C198   1.483       .  S
Co195       N203   2.114       .  S
Co195       N211   2.073       .  S
Co195      N1209   2.133       .  S
Co195      N1231   2.079       .  S
Co195     Cl2231   2.459       .  S
N196        C234   1.334       .  A
N196        N203   1.323       .  A
N196      Co2189   2.077       .  S
Co197       N200   2.061       .  S
Co197       N204   2.117       .  S
Co197      N2188   2.082   1_455  S
Co197      N2209   2.092   1_455  S
Co197      Cl239   2.445       .  S
C198        N236   1.342       .  A
C198        C889   1.493       .  S
N199        N206   1.323       .  A
N199        N229   1.334       .  A
N199      Co1228   2.114       .  S
N200        N218   1.319       .  A
N200        N236   1.315       .  A
N201        C230   1.342       .  A
N201        N211   1.316       .  A
H202        C227   1.081       .  S
N203        N224   1.333       .  A
N204        N222   1.320       .  A
N204        N209   1.334       .  A
C205        N209   1.362       .  A
C205        C233   1.452       .  S
C205        C694   1.490       .  S
N206        C221   1.335       .  A
N206       Co228   2.082       .  S
C207        N235   1.329       .  A
C207        H241   1.081       .  S
C207        C210   1.441       .  S
C210        N231   1.354       .  A
C210        C710   1.461       .  S
N211        N217   1.322       .  A
N212        C238   1.352       .  A
N212        N214   1.320       .  A
N212       Co228   2.104       .  S
N213        C227   1.354       .  A
N213      Co1191   2.112       .  S
N214        N242   1.314       .  A
N214      Co1228   2.052       .  S
H215        C238   1.081       .  S
H216        C233   1.082       .  S
N217      Co2189   2.111       .  S
N218       Co232   2.112       .  S
N219        N231   1.329       .  A
N219        N235   1.323       .  A
N219      Co2220   2.098       .  S
C220        N224   1.360       .  A
C220        C234   1.444       .  S
C220        C950   1.480       .  S
C221        H225   1.082       .  S
C221        C240   1.447       .  S
N222        C233   1.337       .  A
N222       Co232   2.078       .  S
C226        N242   1.336       .  A
C226        C238   1.473       .  S
C226        C726   1.472       .  S
Co228      N2183   2.076   1_455  S
Co228      N2211   2.121   1_455  S
Co228     Cl1235   2.455       .  S
N229        C240   1.359       .  A
C230        C681   1.492       .  S
Co232      N1195   2.119       .  S
Co232      N1210   2.061       .  S
Co232      Cl239   2.451       .  S
N235      Co1191   2.061       .  S
Cl239     Co2187   2.458   1_455  S
Cl239     Co1224   2.447       .  S
C240        C870   1.485       .  S
C243        N261   1.353       .  A
C243        C280   1.456       .  S
C243        C630   1.481       .  S
N244        N261   1.330       .  A
N244        N266   1.324       .  A
N244      Co2273   2.102   1_556  S
C245        N270   1.342       .  A
C245        H290   1.081       .  S
C245        C283   1.458       .  S
H246        C287   1.079       .  S
C247        N271   1.330       .  A
C247        H276   1.078       .  S
C247        C251   1.452       .  S
Co248       N288   2.073       .  S
Co248       N264   2.086       .  S
Co248      N2258   2.079   1_455  S
Co248      N2248   2.076   1_455  S
Co248      Cl292   2.437       .  S
N249        C287   1.343       .  A
N249        N256   1.318       .  A
N249      Co2242   2.084   1_556  S
Co250       N270   2.084       .  S
Co250       N257   2.100   1_556  S
Co250      N2241   2.078   1_455  S
Co250      N2245   2.078   1_456  S
Co250      Cl292   2.472       .  S
C251        N289   1.351       .  A
C251        C566   1.477       .  S
N252        N259   1.317       .  A
N252        N282   1.321       .  A
N252      Co2277   2.075       .  S
N253        N271   1.319       .  A
N253        N289   1.326       .  A
N253      Co2242   2.080       .  S
N254        C283   1.348       .  A
N254        N264   1.323       .  A
H255        C280   1.081       .  S
N256        N277   1.322       .  A
N256      Co2240   2.077       .  S
N257        N275   1.319       .  A
N257        N262   1.330       .  A
C258        N262   1.356       .  A
C258        C286   1.450       .  S
C258        C550   1.478       .  S
N259        C274   1.347       .  A
N259      Co2273   2.093       .  S
C260        N288   1.337       .  A
C260        H294   1.081       .  S
C260        C263   1.456       .  S
C263        N284   1.355       .  A
C263        C614   1.487       .  S
N264        N270   1.320       .  A
N265        C291   1.348       .  A
N265        N267   1.317       .  A
N265       Co281   2.105       .  S
N266        C280   1.339       .  A
N266      Co2240   2.098       .  S
N267        N295   1.321       .  A
N267       Co285   2.070       .  S
H268        C291   1.081       .  S
H269        C286   1.079       .  S
N271      Co2277   2.066       .  S
N272        N284   1.327       .  A
N272        N288   1.320       .  A
N272       Co281   2.104   1_556  S
C273        N277   1.348       .  A
C273        C287   1.464       .  S
C273        C662   1.480       .  S
C274        H278   1.081       .  S
C274        C293   1.471       .  S
N275        C286   1.330       .  A
N275       Co285   2.061       .  S
C279        N295   1.346       .  A
C279        C291   1.477       .  S
C279        C582   1.501       .  S
Co281      N2236   2.107   1_454  S
Co281      N2251   2.114   1_455  S
Co281      Cl292   2.471   1_554  S
N282        C293   1.345       .  A
C283        C649   1.470       .  S
Co285      N2244   2.083   1_455  S
Co285      N2263   2.071   1_455  S
Co285      Cl292   2.428   1_554  S
C293        C598   1.492       .  S
N296        C301   1.353       .  A
N296        C300   1.353       .  A
N296        H328   1.039       .  S
N297        C304   1.353       .  A
N297        C305   1.352       .  A
N298        C303   1.356       .  A
N298        C302   1.354       .  A
N298        H329   1.041       .  S
N299        C306   1.348       .  A
N299        C307   1.351       .  A
C300        C308   1.386       .  A
C300        C316   1.413       .  A
C301        C317   1.415       .  A
C301        C309   1.388       .  A
C302        C310   1.389       .  A
C302        C319   1.421       .  A
C303        C318   1.419       .  A
C303        C311   1.385       .  A
C304        C316   1.418       .  A
C304        C312   1.386       .  A
C305        C319   1.420       .  A
C305        C313   1.387       .  A
C306        C314   1.385       .  A
C306        C317   1.409       .  A
C307        C315   1.387       .  A
C307        C318   1.414       .  A
C308        C309   1.374       .  A
C308        H320   1.082       .  S
C309        H321   1.082       .  S
C310        C311   1.377       .  A
C310        H322   1.082       .  S
C311        H323   1.082       .  S
C312        C313   1.380       .  A
C312        H324   1.082       .  S
C313        H325   1.082       .  S
C314        C315   1.375       .  A
C314        H326   1.082       .  S
C315        H327   1.082       .  S
C316        C518   1.496       .  S
C317        C617   1.484       .  S
C318        C633   1.505       .  S
C319        C534   1.502       .  S
N330        C335   1.352       .  A
N330        C334   1.351       .  A
N330        H362   1.040       .  S
N331        C338   1.352       .  A
N331        C339   1.351       .  A
N332        C337   1.354       .  A
N332        C336   1.353       .  A
N332        H363   1.038       .  S
N333        C340   1.351       .  A
N333        C341   1.348       .  A
C334        C342   1.385       .  A
C334        C350   1.410       .  A
C335        C351   1.416       .  A
C335        C343   1.387       .  A
C336        C344   1.386       .  A
C336        C353   1.414       .  A
C337        C352   1.418       .  A
C337        C345   1.388       .  A
C338        C350   1.414       .  A
C338        C346   1.386       .  A
C339        C353   1.413       .  A
C339        C347   1.386       .  A
C340        C348   1.387       .  A
C340        C351   1.416       .  A
C341        C349   1.386       .  A
C341        C352   1.411       .  A
C342        C343   1.375       .  A
C342        H354   1.082       .  S
C343        H355   1.082       .  S
C344        C345   1.375       .  A
C344        H356   1.082       .  S
C345        H357   1.082       .  S
C346        C347   1.377       .  A
C346        H358   1.082       .  S
C347        H359   1.082       .  S
C348        C349   1.378       .  A
C348        H360   1.082       .  S
C349        H361   1.082       .  S
C350        C486   1.489       .  S
C351        C646   1.496       .  S
C352        C665   1.488       .  S
C353        C502   1.489       .  S
C364        N382   1.353       .  A
C364        C401   1.450       .  S
C364        C793   1.471       .  S
N365        N382   1.329       .  A
N365        N387   1.318       .  A
N365       Co402   2.094       .  S
C366        N391   1.339       .  A
C366        H411   1.074       .  S
C366        C404   1.474       .  S
H367        C408   1.077       .  S
C368        N392   1.345       .  A
C368        H397   1.082       .  S
C368        C372   1.471       .  S
Co369       N377   2.077       .  S
Co369      N2379   2.069   1_455  S
Co369      N3397   2.078   1_455  S
Co369      N1381   2.075       .  S
Co369      Cl413   2.456       .  S
N370        C408   1.347       .  A
N370        N377   1.317       .  A
N370       Co371   2.102       .  S
Co371       N374   2.072       .  S
Co371      N1387   2.074       .  S
Co371      N1374   2.084       .  S
Co371      Cl413   2.443       .  S
C372        N410   1.347       .  A
C372        C521   1.487       .  S
N373        N380   1.321       .  A
N373        N403   1.324       .  A
N373      Co2398   2.095       .  S
N374        N392   1.320       .  A
N374        N410   1.322       .  A
N375        C404   1.354       .  A
N375        N385   1.320       .  A
H376        C401   1.081       .  S
N377        N398   1.320       .  A
N378        N396   1.322       .  A
N378        N383   1.323       .  A
N378      Co1367   2.086   1_545  S
C379        N383   1.348       .  A
C379        C407   1.471       .  S
C379        C489   1.484       .  S
N380        C395   1.340       .  A
N380       Co402   2.094       .  S
C381        N409   1.339       .  A
C381        H415   1.081       .  S
C381        C384   1.453       .  S
C384        N405   1.355       .  A
C384        C777   1.482       .  S
N385        N391   1.314       .  A
N385      Co1365   2.073   1_545  S
N386        C412   1.338       .  A
N386        N388   1.318       .  A
N386      Co1398   2.075       .  S
N387        C401   1.336       .  A
N387      Co2361   2.069       .  S
N388        N416   1.326       .  A
N388      Co3394   2.096       .  S
H389        C412   1.082       .  S
H390        C407   1.081       .  S
N391      Co1367   2.081   1_545  S
N392       Co406   2.106       .  S
N393        N405   1.331       .  A
N393        N409   1.320       .  A
N393      Co1398   2.107       .  S
C394        N398   1.350       .  A
C394        C408   1.476       .  S
C394        C758   1.499       .  S
C395        H399   1.081       .  S
C395        C414   1.467       .  S
N396        C407   1.346       .  A
N396      Co1402   2.108   1_545  S
C400        N416   1.354       .  A
C400        C412   1.458       .  S
C400        C505   1.479       .  S
Co402      N1382   2.072       .  S
Co402      N1389   2.110       .  S
Co402     Cl2405   2.456       .  S
N403        C414   1.352       .  A
C404        C742   1.503       .  S
Co406      N2365   2.087   1_455  S
Co406      N3376   2.112   1_455  S
Co406      N1392   2.096       .  S
Co406      Cl413   2.464       .  S
N409      Co3357   2.078   1_545  S
Cl413     Co2394   2.442   1_455  S
C414        C537   1.498       .  S
N417        C422   1.355       .  A
N417        C421   1.356       .  A
N417        H449   1.042       .  S
N418        C425   1.350       .  A
N418        C426   1.349       .  A
N419        C424   1.353       .  A
N419        C423   1.351       .  A
N419        H450   1.042       .  S
N420        C427   1.347       .  A
N420        C428   1.351       .  A
C421        C429   1.385       .  A
C421        C437   1.417       .  A
C422        C438   1.418       .  A
C422        C430   1.389       .  A
C423        C431   1.385       .  A
C423        C440   1.408       .  A
C424        C439   1.417       .  A
C424        C432   1.387       .  A
C425        C437   1.408       .  A
C425        C433   1.386       .  A
C426        C440   1.410       .  A
C426        C434   1.388       .  A
C427        C435   1.383       .  A
C427        C438   1.409       .  A
C428        C436   1.388       .  A
C428        C439   1.416       .  A
C429        C430   1.376       .  A
C429        H441   1.083       .  S
C430        H442   1.081       .  S
C431        C432   1.375       .  A
C431        H443   1.082       .  S
C432        H444   1.081       .  S
C433        C434   1.366       .  A
C433        H445   1.082       .  S
C434        H446   1.082       .  S
C435        C436   1.375       .  A
C435        H447   1.081       .  S
C436        H448   1.082       .  S
C437        C713   1.491       .  S
C438        C729   1.524       .  S
C439        C553   1.504       .  S
C440        C569   1.478       .  S
N451        C456   1.353       .  A
N451        C455   1.355       .  A
N451        H483   1.040       .  S
N452        C459   1.351       .  A
N452        C460   1.350       .  A
N453        C458   1.355       .  A
N453        C457   1.357       .  A
N453        H484   1.035       .  S
N454        C461   1.355       .  A
N454        C462   1.356       .  A
C455        C463   1.387       .  A
C455        C471   1.416       .  A
C456        C472   1.416       .  A
C456        C464   1.388       .  A
C457        C465   1.387       .  A
C457        C474   1.423       .  A
C458        C473   1.424       .  A
C458        C466   1.387       .  A
C459        C471   1.411       .  A
C459        C467   1.386       .  A
C460        C474   1.414       .  A
C460        C468   1.387       .  A
C461        C469   1.386       .  A
C461        C472   1.418       .  A
C462        C470   1.387       .  A
C462        C473   1.423       .  A
C463        C464   1.376       .  A
C463        H475   1.083       .  S
C464        H476   1.082       .  S
C465        C466   1.380       .  A
C465        H477   1.082       .  S
C466        H478   1.082       .  S
C467        C468   1.369       .  A
C467        H479   1.083       .  S
C468        H480   1.082       .  S
C469        C470   1.372       .  A
C469        H481   1.082       .  S
C470        H482   1.082       .  S
C471        C601   1.491       .  S
C472        C585   1.493       .  S
C473        C697   1.501       .  S
C474        C678   1.494       .  S
C485        C486   1.400       .  A
C485        C490   1.405       .  A
C485        H492   1.084       .  S
C486        C487   1.414       .  A
C487        C488   1.413       .  A
C487        C494   1.518       .  S
C488        C489   1.408       .  A
C488        H493   1.083       .  S
C489        C490   1.419       .  A
C490        C491   1.518       .  S
C491        F495   1.383       .  S
C491        F496   1.383       .  S
C491        F497   1.381       .  S
C494        F498   1.382       .  S
C494        F499   1.383       .  S
C494        F500   1.384       .  S
C501        C502   1.400       .  A
C501        C506   1.404       .  A
C501        H508   1.083       .  S
C502        C503   1.415       .  A
C503        C504   1.410       .  A
C503        C510   1.517       .  S
C504        C505   1.404       .  A
C504        H509   1.083       .  S
C505        C506   1.418       .  A
C506        C507   1.517       .  S
C507        F511   1.385       .  S
C507        F512   1.382       .  S
C507        F513   1.383       .  S
C510        F514   1.383       .  S
C510        F515   1.382       .  S
C510        F516   1.385       .  S
C517        C518   1.402       .  A
C517        C522   1.409       .  A
C517        H524   1.083       .  S
C518        C519   1.419       .  A
C519        C520   1.409       .  A
C519        C526   1.520       .  S
C520        C521   1.404       .  A
C520        H525   1.082       .  S
C521        C522   1.420       .  A
C522        C523   1.519       .  S
C523        F527   1.384       .  S
C523        F528   1.381       .  S
C523        F529   1.383       .  S
C526        F530   1.384       .  S
C526        F531   1.383       .  S
C526        F532   1.381       .  S
C533        C534   1.405       .  A
C533        C538   1.409       .  A
C533        H540   1.083       .  S
C534        C535   1.419       .  A
C535        C536   1.407       .  A
C535        C542   1.519       .  S
C536        C537   1.408       .  A
C536        H541   1.084       .  S
C537        C538   1.426       .  A
C538        C539   1.522       .  S
C539        F543   1.385       .  S
C539        F544   1.377       .  S
C539        F545   1.383       .  S
C542        F546   1.382       .  S
C542        F547   1.382       .  S
C542        F548   1.385       .  S
C549        C550   1.401       .  A
C549        C554   1.411       .  A
C549        H556   1.084       .  S
C550        C551   1.416       .  A
C551        C552   1.396       .  A
C551        C558   1.520       .  S
C552        C553   1.405       .  A
C552        H557   1.081       .  S
C553        C554   1.425       .  A
C554        C555   1.516       .  S
C555        F559   1.383       .  S
C555        F560   1.382       .  S
C555        F561   1.383       .  S
C558        F562   1.382       .  S
C558        F563   1.384       .  S
C558        F564   1.384       .  S
C565        C566   1.406       .  A
C565        C570   1.399       .  A
C565        H572   1.082       .  S
C566        C567   1.417       .  A
C567        C568   1.406       .  A
C567        C574   1.518       .  S
C568        C569   1.403       .  A
C568        H573   1.083       .  S
C569        C570   1.412       .  A
C570        C571   1.522       .  S
C571        F575   1.382       .  S
C571        F576   1.381       .  S
C571        F577   1.385       .  S
C574        F578   1.383       .  S
C574        F579   1.383       .  S
C574        F580   1.384       .  S
C581        C582   1.409       .  A
C581        C586   1.410       .  A
C581        H588   1.080       .  S
C582        C583   1.432       .  A
C583        C584   1.408       .  A
C583        C590   1.522       .  S
C584        C585   1.396       .  A
C584        H589   1.083       .  S
C585        C586   1.413       .  A
C586        C587   1.517       .  S
C587        F591   1.384       .  S
C587        F592   1.383       .  S
C587        F593   1.382       .  S
C590        F594   1.383       .  S
C590        F595   1.382       .  S
C590        F596   1.385       .  S
C597        C598   1.409       .  A
C597        C602   1.412       .  A
C597        H604   1.082       .  S
C598        C599   1.426       .  A
C599        C600   1.402       .  A
C599        C606   1.521       .  S
C600        C601   1.398       .  A
C600        H605   1.084       .  S
C601        C602   1.414       .  A
C602        C603   1.518       .  S
C603        F607   1.384       .  S
C603        F608   1.383       .  S
C603        F609   1.381       .  S
C606        F610   1.384       .  S
C606        F611   1.381       .  S
C606        F612   1.386       .  S
C613        C614   1.409       .  A
C613        C618   1.405       .  A
C613        H620   1.081       .  S
C614        C615   1.420       .  A
C615        C616   1.407       .  A
C615        C622   1.517       .  S
C616        C617   1.399       .  A
C616        H621   1.083       .  S
C617        C618   1.413       .  A
C618        C619   1.522       .  S
C619        F623   1.384       .  S
C619        F624   1.383       .  S
C619        F625   1.382       .  S
C622        F626   1.382       .  S
C622        F627   1.383       .  S
C622        F628   1.385       .  S
C629        C630   1.402       .  A
C629        C634   1.410       .  A
C629        H636   1.084       .  S
C630        C631   1.412       .  A
C631        C632   1.409       .  A
C631        C638   1.518       .  S
C632        C633   1.409       .  A
C632        H637   1.082       .  S
C633        C634   1.423       .  A
C634        C635   1.519       .  S
C635        F639   1.384       .  S
C635        F640   1.383       .  S
C635        F641   1.382       .  S
C638        F642   1.384       .  S
C638        F643   1.379       .  S
C638        F644   1.385       .  S
C645        C646   1.407       .  A
C645        C650   1.407       .  A
C645        H652   1.083       .  S
C646        C647   1.425       .  A
C647        C648   1.404       .  A
C647        C654   1.520       .  S
C648        C649   1.397       .  A
C648        H653   1.085       .  S
C649        C650   1.412       .  A
C650        C651   1.517       .  S
C651        F655   1.384       .  S
C651        F656   1.384       .  S
C651        F657   1.381       .  S
C654        F658   1.383       .  S
C654        F659   1.381       .  S
C654        F660   1.384       .  S
C661        C662   1.403       .  A
C661        C666   1.402       .  A
C661        H668   1.080       .  S
C662        C663   1.419       .  A
C663        C664   1.411       .  A
C663        C670   1.519       .  S
C664        C665   1.404       .  A
C664        H669   1.083       .  S
C665        C666   1.413       .  A
C666        C667   1.520       .  S
C667        F671   1.382       .  S
C667        F672   1.382       .  S
C667        F673   1.383       .  S
C670        F674   1.381       .  S
C670        F675   1.384       .  S
C670        F676   1.384       .  S
C677        C678   1.407       .  A
C677        C682   1.415       .  A
C677        H684   1.083       .  S
C678        C679   1.412       .  A
C679        C680   1.403       .  A
C679        C686   1.520       .  S
C680        C681   1.409       .  A
C680        H685   1.081       .  S
C681        C682   1.420       .  A
C682        C683   1.516       .  S
C683        F687   1.385       .  S
C683        F688   1.383       .  S
C683        F689   1.381       .  S
C686        F690   1.381       .  S
C686        F691   1.382       .  S
C686        F692   1.385       .  S
C693        C694   1.406       .  A
C693        C698   1.417       .  A
C693        H700   1.083       .  S
C694        C695   1.421       .  A
C695        C696   1.406       .  A
C695        C702   1.519       .  S
C696        C697   1.401       .  A
C696        H701   1.085       .  S
C697        C698   1.419       .  A
C698        C699   1.517       .  S
C699        F703   1.384       .  S
C699        F704   1.381       .  S
C699        F705   1.382       .  S
C702        F706   1.383       .  S
C702        F707   1.382       .  S
C702        F708   1.385       .  S
C709        C710   1.398       .  A
C709        C714   1.406       .  A
C709        H716   1.083       .  S
C710        C711   1.411       .  A
C711        C712   1.403       .  A
C711        C718   1.519       .  S
C712        C713   1.406       .  A
C712        H717   1.083       .  S
C713        C714   1.418       .  A
C714        C715   1.517       .  S
C715        F719   1.384       .  S
C715        F720   1.380       .  S
C715        F721   1.383       .  S
C718        F723   1.384       .  S
C718       F1718   1.380       .  S
C718       F1720   1.384       .  S
F722       C1714   1.380       .  S
F724       C1714   1.385       .  S
C725        C726   1.392       .  A
C725        C730   1.406       .  A
C725        H732   1.085       .  S
C726        C727   1.416       .  A
C727        C728   1.404       .  A
C727        C734   1.519       .  S
C728        C729   1.409       .  A
C728        H733   1.073       .  S
C729        C730   1.435       .  A
C730        C731   1.517       .  S
C731        F735   1.384       .  S
C731        F736   1.382       .  S
C731        F737   1.381       .  S
C734        F738   1.383       .  S
C734        F739   1.384       .  S
C734        F740   1.384       .  S
C741        C742   1.411       .  A
C741        C746   1.401       .  A
C741        H748   1.081       .  S
C742        C743   1.429       .  A
C743        C744   1.412       .  A
C743        C750   1.515       .  S
C744        C745   1.398       .  A
C744        H749   1.083       .  S
C745        C746   1.412       .  A
C746        C747   1.523       .  S
C747        F751   1.385       .  S
C747        F752   1.382       .  S
C747        F753   1.383       .  S
C750        F754   1.382       .  S
C750        F755   1.383       .  S
C750        F756   1.385       .  S
C757        C758   1.409       .  A
C757        C762   1.402       .  A
C757        H764   1.080       .  S
C758        C759   1.426       .  A
C759        C760   1.414       .  A
C759        C766   1.516       .  S
C760        C761   1.401       .  A
C760        H765   1.083       .  S
C761        C762   1.411       .  A
C762        C763   1.523       .  S
C763        F767   1.382       .  S
C763        F768   1.382       .  S
C763        F769   1.385       .  S
C766        F770   1.380       .  S
C766        F771   1.383       .  S
C766        F772   1.385       .  S
C773        C774   1.405       .  A
C773        C778   1.408       .  A
C773        H780   1.083       .  S
C774        C775   1.421       .  A
C775        C776   1.410       .  A
C775        C782   1.515       .  S
C776        C777   1.400       .  A
C776        H781   1.083       .  S
C777        C778   1.416       .  A
C778        C779   1.517       .  S
C779        F783   1.385       .  S
C779        F784   1.378       .  S
C779       F2777   1.384       .  S
C782        F786   1.378       .  S
C782        F787   1.384       .  S
C782        F788   1.384       .  S
F785       C2771   1.383       .  S
C789        C790   1.407       .  A
C789        C794   1.406       .  A
C789        H796   1.083       .  S
C790        C791   1.422       .  A
C791        C792   1.405       .  A
C791        C798   1.517       .  S
C792        C793   1.397       .  A
C792        H797   1.085       .  S
C793        C794   1.413       .  A
C794        C795   1.519       .  S
C795        F800   1.383       .  S
C795       F2791   1.385       .  S
C795       F2793   1.379       .  S
C798        F802   1.381       .  S
C798        F803   1.383       .  S
C798        F804   1.384       .  S
F799       C2787   1.384       .  S
F801       C2787   1.378   1_455  S
C805        C806   1.409       .  A
C805        C810   1.404       .  A
C805        H812   1.078       .  S
C806        C807   1.428       .  A
C807        C808   1.414       .  A
C807        C814   1.516       .  S
C808        C809   1.400       .  A
C808        H813   1.083       .  S
C809        C810   1.412       .  A
C810        C811   1.521       .  S
C811        F815   1.384       .  S
C811        F816   1.382       .  S
C811        F817   1.377       .  S
C814        F818   1.383       .  S
C814        F819   1.382       .  S
C814        F820   1.385       .  S
C821        C822   1.402       .  A
C821        C826   1.411       .  A
C821        H828   1.084       .  S
C822        C823   1.414       .  A
C823        C824   1.397       .  A
C823        C830   1.520       .  S
C824        C825   1.405       .  A
C824        H829   1.085       .  S
C825        C826   1.426       .  A
C826        C827   1.520       .  S
C827        F831   1.379       .  S
C827        F832   1.382       .  S
C827        F833   1.385       .  S
C830        F834   1.382       .  S
C830        F835   1.383       .  S
C830        F836   1.385       .  S
C837        C838   1.402       .  A
C837        C842   1.400       .  A
C837        H844   1.084       .  S
C838        C839   1.412       .  A
C839        C840   1.403       .  A
C839        C846   1.517       .  S
C840        C841   1.402       .  A
C840        H845   1.083       .  S
C841        C842   1.414       .  A
C842        C843   1.519       .  S
C843        F847   1.385       .  S
C843        F848   1.382       .  S
C843        F849   1.381       .  S
C846        F850   1.384       .  S
C846        F851   1.382       .  S
C846        F852   1.384       .  S
C853        C854   1.401       .  A
C853        C858   1.398       .  A
C853        H860   1.085       .  S
C854        C855   1.414       .  A
C855        C856   1.407       .  A
C855        C862   1.517       .  S
C856        C857   1.403       .  A
C856        H861   1.083       .  S
C857        C858   1.416       .  A
C858        C859   1.520       .  S
C859        F863   1.384       .  S
C859        F864   1.383       .  S
C859        F865   1.382       .  S
C862        F866   1.381       .  S
C862        F867   1.383       .  S
C862        F868   1.384       .  S
C869        C870   1.406       .  A
C869        C874   1.417       .  A
C869        H876   1.084       .  S
C870        C871   1.412       .  A
C871        C872   1.403       .  A
C871        C878   1.517       .  S
C872        C873   1.408       .  A
C872        H877   1.083       .  S
C873        C874   1.426       .  A
C874        C875   1.519       .  S
C875        F879   1.383       .  S
C875        F880   1.381       .  S
C875        F881   1.383       .  S
C878        F882   1.385       .  S
C878        F883   1.384       .  S
C878       F2876   1.381       .  S
F884       C2870   1.380       .  S
C885        C886   1.407       .  A
C885        C890   1.415       .  A
C885        H892   1.083       .  S
C886        C887   1.417       .  A
C887        C888   1.403       .  A
C887        C894   1.524       .  S
C888        C889   1.408       .  A
C888        H893   1.083       .  S
C889        C890   1.419       .  A
C890        C891   1.514       .  S
C891        F895   1.385       .  S
C891        F896   1.383       .  S
C891        F897   1.382       .  S
C894        F898   1.382       .  S
C894        F899   1.380       .  S
C894       F2892   1.384       .  S
F900       C2886   1.382       .  S
C901        C902   1.400       .  A
C901        C906   1.402       .  A
C901        H908   1.084       .  S
C902        C903   1.412       .  A
C903        C904   1.402       .  A
C903        C910   1.517       .  S
C904        C905   1.401       .  A
C904        H909   1.083       .  S
C905        C906   1.417       .  A
C906        C907   1.522       .  S
C907        F911   1.385       .  S
C907        F912   1.381       .  S
C907        F913   1.382       .  S
C910        F914   1.383       .  S
C910        F915   1.384       .  S
C910        F916   1.384       .  S
C917        C918   1.403       .  A
C917        C922   1.401       .  A
C917        H924   1.084       .  S
C918        C919   1.415       .  A
C919        C920   1.405       .  A
C919        C926   1.517       .  S
C920        C921   1.400       .  A
C920        H925   1.083       .  S
C921        C922   1.411       .  A
C922        C923   1.518       .  S
C923        F927   1.385       .  S
C923        F928   1.383       .  S
C923        F929   1.380       .  S
C926        F930   1.383       .  S
C926        F931   1.381       .  S
C926        F932   1.385       .  S
C933        C934   1.405       .  A
C933        C938   1.416       .  A
C933        H940   1.083       .  S
C934        C935   1.416       .  A
C935        C936   1.407       .  A
C935        C942   1.519       .  S
C936        C937   1.404       .  A
C936        H941   1.081       .  S
C937        C938   1.420       .  A
C938        C939   1.517       .  S
C939        F943   1.385       .  S
C939        F944   1.382       .  S
C939        F945   1.383       .  S
C942        F946   1.382       .  S
C942        F947   1.383       .  S
C942        F948   1.385       .  S
C949        C950   1.402       .  A
C949        C954   1.406       .  A
C949        H956   1.084       .  S
C950        C951   1.417       .  A
C951        C952   1.412       .  A
C951        C958   1.516       .  S
C952        C953   1.404       .  A
C952        H957   1.083       .  S
C953        C954   1.418       .  A
C954        C955   1.521       .  S
C955        F960   1.383       .  S
C955        F961   1.381       .  S
C955       F2951   1.384       .  S
C958        F962   1.383       .  S
C958        F963   1.382       .  S
C958        F964   1.385       .  S
F959       C2947   1.385       .  S
C965        C966   1.400       .  A
C965        C970   1.410       .  A
C965        H972   1.083       .  S
C966        C967   1.411       .  A
C967        C968   1.401       .  A
C967        C974   1.518       .  S
C968        C969   1.407       .  A
C968        H973   1.083       .  S
C969        C970   1.422       .  A
C970        C971   1.516       .  S
C971        F975   1.384       .  S
C971        F976   1.382       .  S
C971        F977   1.380       .  S
C974        F978   1.382       .  S
C974        F979   1.382       .  S
C974        F980   1.384       .  S
C981        C982   1.402       .  A
C981        C986   1.416       .  A
C981        H988   1.083       .  S
C982        C983   1.413       .  A
C983        C984   1.410       .  A
C983        C990   1.521       .  S
C984        C985   1.412       .  A
C984        H989   1.081       .  S
C985        C986   1.426       .  A
C986        C987   1.516       .  S
C987        F991   1.385       .  S
C987        F992   1.381       .  S
C987        F993   1.383       .  S
C990        F994   1.384       .  S
C990        F995   1.383       .  S
C990        F996   1.382       .  S
N997       C1002   1.355       .  A
N997       C1001   1.352       .  A
N997       H1029   1.042       .  S
N998       C1005   1.356       .  A
N998       C1006   1.359       .  A
N999       C1004   1.354       .  A
N999       C1003   1.355       .  A
N999       H1030   1.042       .  S
N1000      C1007   1.351       .  A
N1000      C1008   1.350       .  A
C1001      C1009   1.389       .  A
C1001      C1017   1.417       .  A
C1002      C1018   1.417       .  A
C1002      C1010   1.386       .  A
C1003      C1011   1.388       .  A
C1003      C1020   1.419       .  A
C1004      C1019   1.418       .  A
C1004      C1012   1.387       .  A
C1005      C1017   1.426       .  A
C1005      C1013   1.387       .  A
C1006      C1020   1.427       .  A
C1006      C1014   1.386       .  A
C1007      C1015   1.385       .  A
C1007      C1018   1.412       .  A
C1008      C1016   1.387       .  A
C1008      C1019   1.413       .  A
C1009      C1010   1.374       .  A
C1009      H1021   1.082       .  S
C1010      H1022   1.082       .  S
C1011      C1012   1.373       .  A
C1011      H1023   1.082       .  S
C1012      H1024   1.082       .  S
C1013      C1014   1.384       .  A
C1013      H1025   1.082       .  S
C1014      H1026   1.082       .  S
C1015      C1016   1.375       .  A
C1015      H1027   1.082       .  S
C1016      H1028   1.082       .  S
C1017      C1949   1.500       .  S
C1018      C1978   1.491       .  S
C1019      C1962   1.489       .  S
C1020      C1930   1.510       .  S
N1031      C1036   1.350       .  A
N1031      C1035   1.353       .  A
N1031      H1063   1.041       .  S
N1032      C1039   1.343       .  A
N1032      C1040   1.342       .  A
N1033      C1038   1.349       .  A
N1033      C1037   1.352       .  A
N1033      H1064   1.041       .  S
N1034      C1041   1.353       .  A
N1034      C1042   1.352       .  A
C1035      C1043   1.388       .  A
C1035      C1051   1.417       .  A
C1036      C1052   1.413       .  A
C1036      C1044   1.386       .  A
C1037      C1045   1.387       .  A
C1037      C1054   1.415       .  A
C1038      C1053   1.407       .  A
C1038      C1046   1.386       .  A
C1039      C1051   1.401       .  A
C1039      C1047   1.385       .  A
C1040      C1054   1.403       .  A
C1040      C1048   1.386       .  A
C1041      C1049   1.387       .  A
C1041      C1052   1.419       .  A
C1042      C1050   1.386       .  A
C1042      C1053   1.416       .  A
C1043      C1044   1.379       .  A
C1043      H1055   1.082       .  S
C1044      H1056   1.082       .  S
C1045      C1046   1.377       .  A
C1045      H1057   1.082       .  S
C1046      H1058   1.082       .  S
C1047      C1048   1.379       .  A
C1047      H1059   1.082       .  S
C1048      H1060   1.082       .  S
C1049      C1050   1.383       .  A
C1049      H1061   1.082       .  S
C1050      H1062   1.082       .  S
C1051      C1901   1.485       .  S
C1052      C1869   1.500       .  S
C1053      C1882   1.488       .  S
C1054      C1914   1.483       .  S
C1065      N1083   1.347       .  A
C1065      C1102   1.453       .  S
C1065      C1917   1.465       .  S
N1066      N1083   1.325       .  A
N1066      N1088   1.321       .  A
C1067      N1092   1.342       .  A
C1067      H1112   1.076       .  S
C1067      C1105   1.468       .  S
H1068      C1109   1.076       .  S
C1069      N1093   1.332       .  A
C1069      H1098   1.079       .  S
C1069      C1073   1.454       .  S
Co1070     N1110   2.085       .  S
Co1070     N1086   2.082       .  S
Co1070    Cl1114   2.438       .  S
N1071      C1109   1.345       .  A
N1071      N1078   1.320       .  A
Co1072     N1092   2.086       .  S
Co1072     N1079   2.119       .  S
Co1072    Cl1114   2.467       .  S
C1073      N1111   1.357       .  A
C1073      C1818   1.486       .  S
N1074      N1081   1.320       .  A
N1074      N1104   1.321       .  A
N1075      N1093   1.319       .  A
N1075      N1111   1.330       .  A
N1076      C1105   1.351       .  A
N1076      N1086   1.322       .  A
H1077      C1102   1.081       .  S
N1078      N1099   1.321       .  A
N1079      N1097   1.318       .  A
N1079      N1084   1.331       .  A
C1080      N1084   1.360       .  A
C1080      C1108   1.462       .  S
C1080      C1802   1.508       .  S
N1081      C1096   1.345       .  A
C1082      N1110   1.338       .  A
C1082      H1116   1.081       .  S
C1082      C1085   1.452       .  S
C1085      N1106   1.348       .  A
C1085      C1898   1.468       .  S
N1086      N1092   1.317       .  A
N1087      C1113   1.345       .  A
N1087      N1089   1.317       .  A
N1087     Co1103   2.083       .  S
N1088      C1102   1.338       .  A
N1089      N1117   1.322       .  A
N1089     Co1107   2.080       .  S
H1090      C1113   1.080       .  S
H1091      C1108   1.079       .  S
N1094      N1106   1.326       .  A
N1094      N1110   1.321       .  A
N1094     Co1103   2.081       .  S
C1095      N1099   1.351       .  A
C1095      C1109   1.474       .  S
C1095      C1981   1.496       .  S
C1096      H1100   1.081       .  S
C1096      C1115   1.460       .  S
N1097      C1108   1.334       .  A
N1097     Co1107   2.071       .  S
C1101      N1117   1.347       .  A
C1101      C1113   1.464       .  S
C1101      C1834   1.478       .  S
Co1103    Cl1114   2.470       .  S
N1104      C1115   1.346       .  A
C1105      C1965   1.490       .  S
Co1107    Cl1114   2.429       .  S
C1115      C1853   1.469       .  S
N1118      C1123   1.352       .  A
N1118      C1122   1.353       .  A
N1118      H1150   1.041       .  S
N1119      C1126   1.353       .  A
N1119      C1127   1.352       .  A
N1120      C1125   1.355       .  A
N1120      C1124   1.357       .  A
N1120      H1151   1.039       .  S
N1121      C1128   1.353       .  A
N1121      C1129   1.352       .  A
C1122      C1130   1.387       .  A
C1122      C1138   1.414       .  A
C1123      C1139   1.415       .  A
C1123      C1131   1.387       .  A
C1124      C1132   1.388       .  A
C1124      C1141   1.425       .  A
C1125      C1140   1.419       .  A
C1125      C1133   1.386       .  A
C1126      C1138   1.416       .  A
C1126      C1134   1.385       .  A
C1127      C1141   1.419       .  A
C1127      C1135   1.387       .  A
C1128      C1136   1.386       .  A
C1128      C1139   1.416       .  A
C1129      C1137   1.387       .  A
C1129      C1140   1.416       .  A
C1130      C1131   1.375       .  A
C1130      H1142   1.082       .  S
C1131      H1143   1.083       .  S
C1132      C1133   1.380       .  A
C1132      H1144   1.082       .  S
C1133      H1145   1.082       .  S
C1134      C1135   1.379       .  A
C1134      H1146   1.082       .  S
C1135      H1147   1.082       .  S
C1136      C1137   1.379       .  A
C1136      H1148   1.082       .  S
C1137      H1149   1.082       .  S
C1138      C1786   1.497       .  S
C1139      C1821   1.497       .  S
C1140      C1805   1.497       .  S
C1141      C1770   1.505       .  S
N1152      C1157   1.351       .  A
N1152      C1156   1.353       .  A
N1152      H1184   1.038       .  S
N1153      C1160   1.348       .  A
N1153      C1161   1.349       .  A
N1154      C1159   1.351       .  A
N1154      C1158   1.352       .  A
N1154      H1185   1.039       .  S
N1155      C1162   1.350       .  A
N1155      C1163   1.350       .  A
C1156      C1164   1.388       .  A
C1156      C1172   1.416       .  A
C1157      C1173   1.414       .  A
C1157      C1165   1.387       .  A
C1158      C1166   1.387       .  A
C1158      C1175   1.415       .  A
C1159      C1174   1.412       .  A
C1159      C1167   1.387       .  A
C1160      C1172   1.407       .  A
C1160      C1168   1.385       .  A
C1161      C1175   1.409       .  A
C1161      C1169   1.386       .  A
C1162      C1170   1.386       .  A
C1162      C1173   1.410       .  A
C1163      C1171   1.387       .  A
C1163      C1174   1.411       .  A
C1164      C1165   1.375       .  A
C1164      H1176   1.082       .  S
C1165      H1177   1.082       .  S
C1166      C1167   1.377       .  A
C1166      H1178   1.082       .  S
C1167      H1179   1.082       .  S
C1168      C1169   1.375       .  A
C1168      H1180   1.082       .  S
C1169      H1181   1.082       .  S
C1170      C1171   1.373       .  A
C1170      H1182   1.082       .  S
C1171      H1183   1.082       .  S
C1172      C1837   1.487       .  S
C1173      C1741   1.481       .  S
C1174      C1757   1.482       .  S
C1175      C1850   1.487       .  S
C1186      N1204   1.340       .  A
C1186      C1223   1.482       .  S
C1186      C1933   1.493       .  S
N1187      N1204   1.321       .  A
N1187      N1209   1.322       .  A
N1187     Co3216   2.070       .  S
C1188      N1213   1.357       .  A
C1188      H1233   1.079       .  S
C1188      C1226   1.485       .  S
H1189      C1230   1.082       .  S
C1190      N1214   1.352       .  A
C1190      H1219   1.081       .  S
C1190      C1194   1.474       .  S
Co1191     N1199   2.113   1_545  S
Co1191     N1207   2.079   1_545  S
Co1191    Cl3227   2.463       .  S
N1192      C1230   1.336       .  A
N1192      N1199   1.323       .  A
N1192     Co3185   2.086       .  S
Co1193     N3184   2.082   1_455  S
Co1193     N1196   2.067       .  S
Co1193     N3205   2.108   1_455  S
Co1193     N1200   2.122       .  S
Co1193    Cl1235   2.449   1_565  S
C1194      N1232   1.340       .  A
C1194      C1885   1.478       .  S
N1195      N1202   1.321       .  A
N1195      N1225   1.333       .  A
N1196      N1214   1.321       .  A
N1196      N1232   1.316       .  A
N1197      C1226   1.344       .  A
N1197      N1207   1.321       .  A
H1198      C1223   1.081       .  S
N1199      N1220   1.332       .  A
N1200      N1218   1.320       .  A
N1200      N1205   1.336       .  A
C1201      N1205   1.364       .  A
C1201      C1229   1.445       .  S
C1201      C1690   1.488       .  S
N1202      C1217   1.332       .  A
N1202     Co1224   2.065       .  S
C1203      N1231   1.337       .  A
C1203      H1237   1.082       .  S
C1203      C1206   1.450       .  S
C1206      N1227   1.361       .  A
C1206      C1706   1.488       .  S
N1207      N1213   1.320       .  A
N1208      C1234   1.346       .  A
N1208      N1210   1.319       .  A
N1208     Co1224   2.082       .  S
N1209      C1223   1.357       .  A
N1210      N1238   1.314       .  A
H1211      C1234   1.081       .  S
H1212      C1229   1.081       .  S
N1213     Co3185   2.126       .  S
N1214     Co1228   2.099   1_565  S
N1215      N1227   1.334       .  A
N1215      N1231   1.321       .  A
N1215     Co3216   2.119       .  S
C1216      N1220   1.360       .  A
C1216      C1230   1.449       .  S
C1216      C1946   1.483       .  S
C1217      H1221   1.082       .  S
C1217      C1236   1.444       .  S
N1218      C1229   1.330       .  A
N1218     Co1228   2.064   1_565  S
C1222      N1238   1.341       .  A
C1222      C1234   1.466       .  S
C1222      C1722   1.467       .  S
Co1224     N3179   2.062   1_455  S
Co1224     N3207   2.102   1_455  S
N1225      C1236   1.361       .  A
C1226      C1677   1.504       .  S
Co1228    Cl1235   2.453       .  S
Cl1235    Co3183   2.464   1_455  S
C1236      C1866   1.478       .  S
C1239      N1257   1.353       .  A
C1239      C1276   1.451       .  S
C1239      C1626   1.474       .  S
N1240      N1257   1.330       .  A
N1240      N1262   1.322       .  A
N1240     Co3269   2.104       .  S
C1241      N1266   1.339       .  A
C1241      H1286   1.081       .  S
C1241      C1279   1.452       .  S
H1242      C1283   1.078       .  S
C1243      N1267   1.330       .  A
C1243      H1272   1.073       .  S
C1243      C1247   1.450       .  S
Co1244     N3254   2.076   1_455  S
Co1244     N3244   2.067   1_455  S
Co1244     N1284   2.048       .  S
Co1244     N1260   2.087       .  S
Co1244    Cl1288   2.426       .  S
N1245      C1283   1.343       .  A
N1245      N1252   1.316       .  A
N1245     Co3238   2.080   1_556  S
Co1246     N3237   2.077   1_455  S
Co1246     N3241   2.070   1_456  S
Co1246     N1266   2.070       .  S
Co1246     N1253   2.094   1_556  S
Co1246    Cl1288   2.474       .  S
C1247      N1285   1.354       .  A
C1247      C1562   1.482       .  S
N1248      N1255   1.318       .  A
N1248      N1278   1.322       .  A
N1248     Co3273   2.076       .  S
N1249      N1267   1.318       .  A
N1249      N1285   1.329       .  A
N1249     Co3238   2.092       .  S
N1250      C1279   1.347       .  A
N1250      N1260   1.322       .  A
H1251      C1276   1.081       .  S
N1252      N1273   1.319       .  A
N1252     Co3236   2.066       .  S
N1253      N1271   1.318       .  A
N1253      N1258   1.330       .  A
C1254      N1258   1.354       .  A
C1254      C1282   1.451       .  S
C1254      C1546   1.476       .  S
N1255      C1270   1.348       .  A
N1255     Co3269   2.105   1_554  S
C1256      N1284   1.327       .  A
C1256      H1290   1.081       .  S
C1256      C1259   1.450       .  S
C1259      N1280   1.359       .  A
C1259      C1610   1.485       .  S
N1260      N1266   1.321       .  A
N1261      C1287   1.348       .  A
N1261      N1263   1.318       .  A
N1261     Co1277   2.105   1_554  S
N1262      C1276   1.334       .  A
N1262     Co3236   2.075       .  S
N1263      N1291   1.318       .  A
N1263     Co1281   2.065       .  S
H1264      C1287   1.081       .  S
H1265      C1282   1.079       .  S
N1267     Co3273   2.070       .  S
N1268      N1280   1.330       .  A
N1268      N1284   1.318       .  A
N1268     Co1277   2.105       .  S
C1269      N1273   1.347       .  A
C1269      C1283   1.466       .  S
C1269      C1658   1.482       .  S
C1270      H1274   1.081       .  S
C1270      C1289   1.473       .  S
N1271      C1282   1.330       .  A
N1271     Co1281   2.061       .  S
C1275      N1291   1.343       .  A
C1275      C1287   1.478       .  S
C1275      C1578   1.496       .  S
Co1277     N3232   2.103   1_455  S
Co1277     N3247   2.107   1_456  S
Co1277    Cl1288   2.476       .  S
N1278      C1289   1.347       .  A
C1279      C1645   1.461       .  S
Co1281     N3240   2.080   1_455  S
Co1281     N3259   2.070   1_455  S
Co1281    Cl1288   2.421   1_554  S
C1289      C1594   1.497       .  S
N1292      C1297   1.350       .  A
N1292      C1296   1.351       .  A
N1292      H1324   1.045       .  S
N1293      C1300   1.353       .  A
N1293      C1301   1.345       .  A
N1294      C1299   1.356       .  A
N1294      C1298   1.355       .  A
N1294      H1325   1.043       .  S
N1295      C1302   1.347       .  A
N1295      C1303   1.347       .  A
C1296      C1304   1.389       .  A
C1296      C1312   1.405       .  A
C1297      C1313   1.398       .  A
C1297      C1305   1.383       .  A
C1298      C1306   1.389       .  A
C1298      C1315   1.424       .  A
C1299      C1314   1.419       .  A
C1299      C1307   1.385       .  A
C1300      C1312   1.417       .  A
C1300      C1308   1.383       .  A
C1301      C1315   1.417       .  A
C1301      C1309   1.389       .  A
C1302      C1310   1.386       .  A
C1302      C1313   1.407       .  A
C1303      C1311   1.387       .  A
C1303      C1314   1.410       .  A
C1304      C1305   1.369       .  A
C1304      H1316   1.083       .  S
C1305      H1317   1.082       .  S
C1306      C1307   1.378       .  A
C1306      H1318   1.082       .  S
C1307      H1319   1.082       .  S
C1308      C1309   1.387       .  A
C1308      H1320   1.082       .  S
C1309      H1321   1.082       .  S
C1310      C1311   1.377       .  A
C1310      H1322   1.082       .  S
C1311      H1323   1.082       .  S
C1312      C1514   1.490       .  S
C1313      C1613   1.476       .  S
C1314      C1629   1.500       .  S
C1315      C1530   1.500       .  S
N1326      C1331   1.351       .  A
N1326      C1330   1.352       .  A
N1326      H1358   1.036       .  S
N1327      C1334   1.352       .  A
N1327      C1335   1.352       .  A
N1328      C1333   1.353       .  A
N1328      C1332   1.349       .  A
N1328      H1359   1.035       .  S
N1329      C1336   1.347       .  A
N1329      C1337   1.347       .  A
C1330      C1338   1.387       .  A
C1330      C1346   1.413       .  A
C1331      C1347   1.415       .  A
C1331      C1339   1.387       .  A
C1332      C1340   1.387       .  A
C1332      C1349   1.412       .  A
C1333      C1348   1.415       .  A
C1333      C1341   1.388       .  A
C1334      C1346   1.415       .  A
C1334      C1342   1.387       .  A
C1335      C1349   1.411       .  A
C1335      C1343   1.385       .  A
C1336      C1344   1.387       .  A
C1336      C1347   1.410       .  A
C1337      C1345   1.385       .  A
C1337      C1348   1.406       .  A
C1338      C1339   1.373       .  A
C1338      H1350   1.081       .  S
C1339      H1351   1.082       .  S
C1340      C1341   1.376       .  A
C1340      H1352   1.082       .  S
C1341      H1353   1.082       .  S
C1342      C1343   1.372       .  A
C1342      H1354   1.082       .  S
C1343      H1355   1.082       .  S
C1344      C1345   1.373       .  A
C1344      H1356   1.082       .  S
C1345      H1357   1.082       .  S
C1346      C1482   1.485       .  S
C1347      C1642   1.481       .  S
C1348      C1661   1.482       .  S
C1349      C1498   1.482       .  S
C1360      N1378   1.355       .  A
C1360      C1397   1.458       .  S
C1360      C1789   1.486       .  S
N1361      N1378   1.331       .  A
N1361      N1383   1.320       .  A
N1361     Co1398   2.103   1_565  S
C1362      N1387   1.340       .  A
C1362      H1407   1.075       .  S
C1362      C1400   1.468       .  S
H1363      C1404   1.076       .  S
C1364      N1388   1.348       .  A
C1364      H1393   1.082       .  S
C1364      C1368   1.467       .  S
Co1365     N3375   2.077   1_455  S
Co1365     N1373   2.067       .  S
Co1365     N2401   2.071   1_465  S
Co1365    Cl1409   2.450       .  S
N1366      C1404   1.347       .  A
N1366      N1373   1.317       .  A
N1366     Co1367   2.098       .  S
Co1367     N1370   2.085       .  S
Co1367    Cl1409   2.450       .  S
C1368      N1406   1.349       .  A
C1368      C1517   1.488       .  S
N1369      N1376   1.323       .  A
N1369      N1399   1.324       .  A
N1369     Co3394   2.086   1_565  S
N1370      N1388   1.321       .  A
N1370      N1406   1.324       .  A
N1371      C1400   1.354       .  A
N1371      N1381   1.320       .  A
H1372      C1397   1.082       .  S
N1373      N1394   1.316       .  A
N1374      N1392   1.321       .  A
N1374      N1379   1.322       .  A
C1375      N1379   1.348       .  A
C1375      C1403   1.467       .  S
C1375      C1485   1.475       .  S
N1376      C1391   1.342       .  A
N1376     Co1398   2.106   1_565  S
C1377      N1405   1.341       .  A
C1377      H1411   1.081       .  S
C1377      C1380   1.456       .  S
C1380      N1401   1.356       .  A
C1380      C1773   1.488       .  S
N1381      N1387   1.314       .  A
N1382      C1408   1.338       .  A
N1382      N1384   1.320       .  A
N1383      C1397   1.340       .  A
N1383     Co3357   2.085       .  S
N1384      N1412   1.325       .  A
N1384     Co2398   2.095       .  S
H1385      C1408   1.082       .  S
H1386      C1403   1.082       .  S
N1388     Co1402   2.103       .  S
N1389      N1401   1.332       .  A
N1389      N1405   1.320       .  A
C1390      N1394   1.348       .  A
C1390      C1404   1.479       .  S
C1390      C1754   1.498       .  S
C1391      H1395   1.082       .  S
C1391      C1410   1.469       .  S
N1392      C1403   1.343       .  A
C1396      N1412   1.352       .  A
C1396      C1408   1.456       .  S
C1396      C1501   1.474       .  S
Co1398    Cl3401   2.456       .  S
N1399      C1410   1.349       .  A
C1400      C1738   1.494       .  S
Co1402     N3361   2.101   1_455  S
Co1402     N2380   2.108   1_465  S
Co1402    Cl1409   2.458       .  S
N1405     Co2361   2.087       .  S
Cl1409    Co3390   2.453   1_455  S
C1410      C1533   1.494       .  S
N1413      C1418   1.351       .  A
N1413      C1417   1.358       .  A
N1413      H1445   1.042       .  S
N1414      C1421   1.355       .  A
N1414      C1422   1.350       .  A
N1415      C1420   1.358       .  A
N1415      C1419   1.351       .  A
N1415      H1446   1.040       .  S
N1416      C1423   1.344       .  A
N1416      C1424   1.351       .  A
C1417      C1425   1.386       .  A
C1417      C1433   1.419       .  A
C1418      C1434   1.414       .  A
C1418      C1426   1.387       .  A
C1419      C1427   1.386       .  A
C1419      C1436   1.414       .  A
C1420      C1435   1.422       .  A
C1420      C1428   1.387       .  A
C1421      C1433   1.414       .  A
C1421      C1429   1.384       .  A
C1422      C1436   1.419       .  A
C1422      C1430   1.389       .  A
C1423      C1431   1.385       .  A
C1423      C1434   1.407       .  A
C1424      C1432   1.388       .  A
C1424      C1435   1.414       .  A
C1425      C1426   1.378       .  A
C1425      H1437   1.082       .  S
C1426      H1438   1.082       .  S
C1427      C1428   1.376       .  A
C1427      H1439   1.081       .  S
C1428      H1440   1.081       .  S
C1429      C1430   1.370       .  A
C1429      H1441   1.082       .  S
C1430      H1442   1.082       .  S
C1431      C1432   1.375       .  A
C1431      H1443   1.083       .  S
C1432      H1444   1.082       .  S
C1433      C1709   1.505       .  S
C1434      C1725   1.512       .  S
C1435      C1549   1.508       .  S
C1436      C1565   1.483       .  S
N1447      C1452   1.353       .  A
N1447      C1451   1.354       .  A
N1447      H1479   1.041       .  S
N1448      C1455   1.353       .  A
N1448      C1456   1.353       .  A
N1449      C1454   1.356       .  A
N1449      C1453   1.358       .  A
N1449      H1480   1.036       .  S
N1450      C1457   1.353       .  A
N1450      C1458   1.353       .  A
C1451      C1459   1.387       .  A
C1451      C1467   1.414       .  A
C1452      C1468   1.414       .  A
C1452      C1460   1.387       .  A
C1453      C1461   1.386       .  A
C1453      C1470   1.425       .  A
C1454      C1469   1.425       .  A
C1454      C1462   1.387       .  A
C1455      C1467   1.415       .  A
C1455      C1463   1.386       .  A
C1456      C1470   1.418       .  A
C1456      C1464   1.387       .  A
C1457      C1465   1.386       .  A
C1457      C1468   1.413       .  A
C1458      C1466   1.388       .  A
C1458      C1469   1.418       .  A
C1459      C1460   1.375       .  A
C1459      H1471   1.082       .  S
C1460      H1472   1.082       .  S
C1461      C1462   1.382       .  A
C1461      H1473   1.082       .  S
C1462      H1474   1.082       .  S
C1463      C1464   1.370       .  A
C1463      H1475   1.082       .  S
C1464      H1476   1.082       .  S
C1465      C1466   1.372       .  A
C1465      H1477   1.082       .  S
C1466      H1478   1.082       .  S
C1467      C1597   1.493       .  S
C1468      C1581   1.489       .  S
C1469      C1693   1.498       .  S
C1470      C1674   1.503       .  S
C1481      C1482   1.398       .  A
C1481      C1486   1.400       .  A
C1481      H1488   1.084       .  S
C1482      C1483   1.416       .  A
C1483      C1484   1.412       .  A
C1483      C1490   1.519       .  S
C1484      C1485   1.405       .  A
C1484      H1489   1.083       .  S
C1485      C1486   1.418       .  A
C1486      C1487   1.519       .  S
C1487      F1491   1.383       .  S
C1487      F1492   1.381       .  S
C1487      F1493   1.381       .  S
C1490      F1494   1.382       .  S
C1490      F1495   1.381       .  S
C1490      F1496   1.385       .  S
C1497      C1498   1.399       .  A
C1497      C1502   1.402       .  A
C1497      H1504   1.084       .  S
C1498      C1499   1.414       .  A
C1499      C1500   1.406       .  A
C1499      C1506   1.517       .  S
C1500      C1501   1.402       .  A
C1500      H1505   1.083       .  S
C1501      C1502   1.418       .  A
C1502      C1503   1.514       .  S
C1503      F1507   1.386       .  S
C1503      F1508   1.381       .  S
C1503      F1509   1.384       .  S
C1506      F1510   1.383       .  S
C1506      F1511   1.382       .  S
C1506      F1512   1.384       .  S
C1513      C1514   1.404       .  A
C1513      C1518   1.409       .  A
C1513      H1520   1.083       .  S
C1514      C1515   1.421       .  A
C1515      C1516   1.414       .  A
C1515      C1522   1.519       .  S
C1516      C1517   1.406       .  A
C1516      H1521   1.084       .  S
C1517      C1518   1.415       .  A
C1518      C1519   1.517       .  S
C1519      F1523   1.384       .  S
C1519      F1524   1.380       .  S
C1519      F1525   1.384       .  S
C1522      F1526   1.381       .  S
C1522      F1527   1.381       .  S
C1522      F1528   1.384       .  S
C1529      C1530   1.406       .  A
C1529      C1534   1.409       .  A
C1529      H1536   1.083       .  S
C1530      C1531   1.419       .  A
C1531      C1532   1.406       .  A
C1531      C1538   1.519       .  S
C1532      C1533   1.405       .  A
C1532      H1537   1.083       .  S
C1533      C1534   1.425       .  A
C1534      C1535   1.520       .  S
C1535      F1539   1.386       .  S
C1535      F1540   1.378       .  S
C1535      F1541   1.384       .  S
C1538      F1542   1.380       .  S
C1538      F1543   1.384       .  S
C1538      F1544   1.385       .  S
C1545      C1546   1.400       .  A
C1545      C1550   1.411       .  A
C1545      H1552   1.084       .  S
C1546      C1547   1.413       .  A
C1547      C1548   1.400       .  A
C1547      C1554   1.519       .  S
C1548      C1549   1.408       .  A
C1548      H1553   1.082       .  S
C1549      C1550   1.425       .  A
C1550      C1551   1.515       .  S
C1551      F1555   1.384       .  S
C1551      F1556   1.382       .  S
C1551      F1557   1.383       .  S
C1554      F1558   1.384       .  S
C1554      F1559   1.382       .  S
C1554      F1560   1.384       .  S
C1561      C1562   1.409       .  A
C1561      C1566   1.404       .  A
C1561      H1568   1.082       .  S
C1562      C1563   1.415       .  A
C1563      C1564   1.406       .  A
C1563      C1570   1.518       .  S
C1564      C1565   1.404       .  A
C1564      H1569   1.083       .  S
C1565      C1566   1.413       .  A
C1566      C1567   1.522       .  S
C1567      F1571   1.382       .  S
C1567      F1572   1.380       .  S
C1567      F1573   1.384       .  S
C1570      F1574   1.383       .  S
C1570      F1575   1.382       .  S
C1570      F1576   1.385       .  S
C1577      C1578   1.408       .  A
C1577      C1582   1.409       .  A
C1577      H1584   1.081       .  S
C1578      C1579   1.432       .  A
C1579      C1580   1.404       .  A
C1579      C1586   1.522       .  S
C1580      C1581   1.395       .  A
C1580      H1585   1.083       .  S
C1581      C1582   1.412       .  A
C1582      C1583   1.516       .  S
C1583      F1587   1.385       .  S
C1583      F1588   1.383       .  S
C1583      F1589   1.382       .  S
C1586      F1590   1.383       .  S
C1586      F1591   1.383       .  S
C1586      F1592   1.385       .  S
C1593      C1594   1.410       .  A
C1593      C1598   1.412       .  A
C1593      H1600   1.081       .  S
C1594      C1595   1.427       .  A
C1595      C1596   1.401       .  A
C1595      C1602   1.518       .  S
C1596      C1597   1.396       .  A
C1596      H1601   1.084       .  S
C1597      C1598   1.415       .  A
C1598      C1599   1.517       .  S
C1599      F1603   1.385       .  S
C1599      F1604   1.383       .  S
C1599      F1605   1.381       .  S
C1602      F1606   1.383       .  S
C1602      F1607   1.376       .  S
C1602      F1608   1.385       .  S
C1609      C1610   1.408       .  A
C1609      C1614   1.397       .  A
C1609      H1616   1.079       .  S
C1610      C1611   1.417       .  A
C1611      C1612   1.409       .  A
C1611      C1618   1.516       .  S
C1612      C1613   1.404       .  A
C1612      H1617   1.083       .  S
C1613      C1614   1.413       .  A
C1614      C1615   1.524       .  S
C1615      F1619   1.383       .  S
C1615      F1620   1.385       .  S
C1615      F1621   1.383       .  S
C1618      F1622   1.383       .  S
C1618      F1623   1.383       .  S
C1618      F1624   1.384       .  S
C1625      C1626   1.400       .  A
C1625      C1630   1.408       .  A
C1625      H1632   1.084       .  S
C1626      C1627   1.413       .  A
C1627      C1628   1.404       .  A
C1627      C1634   1.521       .  S
C1628      C1629   1.407       .  A
C1628      H1633   1.082       .  S
C1629      C1630   1.423       .  A
C1630      C1631   1.517       .  S
C1631      F1635   1.384       .  S
C1631      F1636   1.382       .  S
C1631      F1637   1.382       .  S
C1634      F1638   1.383       .  S
C1634      F1639   1.377       .  S
C1634      F1640   1.385       .  S
C1641      C1642   1.403       .  A
C1641      C1646   1.400       .  A
C1641      H1648   1.083       .  S
C1642      C1643   1.419       .  A
C1643      C1644   1.401       .  A
C1643      C1650   1.518       .  S
C1644      C1645   1.397       .  A
C1644      H1649   1.085       .  S
C1645      C1646   1.411       .  A
C1646      C1647   1.517       .  S
C1647      F1651   1.385       .  S
C1647      F1652   1.383       .  S
C1647      F1653   1.379       .  S
C1650      F1654   1.384       .  S
C1650      F1655   1.382       .  S
C1650      F1656   1.383       .  S
C1657      C1658   1.404       .  A
C1657      C1662   1.398       .  A
C1657      H1664   1.078       .  S
C1658      C1659   1.421       .  A
C1659      C1660   1.410       .  A
C1659      C1666   1.517       .  S
C1660      C1661   1.401       .  A
C1660      H1665   1.083       .  S
C1661      C1662   1.411       .  A
C1662      C1663   1.521       .  S
C1663      F1667   1.382       .  S
C1663      F1668   1.382       .  S
C1663      F1669   1.385       .  S
C1666      F1670   1.381       .  S
C1666      F1671   1.383       .  S
C1666      F1672   1.385       .  S
C1673      C1674   1.407       .  A
C1673      C1678   1.418       .  A
C1673      H1680   1.083       .  S
C1674      C1675   1.413       .  A
C1675      C1676   1.409       .  A
C1675      C1682   1.520       .  S
C1676      C1677   1.411       .  A
C1676      H1681   1.081       .  S
C1677      C1678   1.422       .  A
C1678      C1679   1.515       .  S
C1679      F1683   1.385       .  S
C1679      F1684   1.383       .  S
C1679      F1685   1.381       .  S
C1682      F1686   1.382       .  S
C1682      F1687   1.383       .  S
C1682      F1688   1.384   1_565  S
C1689      C1690   1.406       .  A
C1689      C1694   1.418       .  A
C1689      H1696   1.083       .  S
C1690      C1691   1.423       .  A
C1691      C1692   1.403       .  A
C1691      C1698   1.520       .  S
C1692      C1693   1.398       .  A
C1692      H1697   1.085       .  S
C1693      C1694   1.419       .  A
C1694      C1695   1.517       .  S
C1695      F1699   1.384       .  S
C1695      F1700   1.382       .  S
C1695      F1701   1.383       .  S
C1698      F1702   1.383   1_565  S
C1698      F1703   1.383       .  S
C1698      F1704   1.384       .  S
C1705      C1706   1.405       .  A
C1705      C1710   1.416       .  A
C1705      H1712   1.083       .  S
C1706      C1707   1.416       .  A
C1707      C1708   1.409       .  A
C1707      C1714   1.517       .  S
C1708      C1709   1.404       .  A
C1708      H1713   1.083       .  S
C1709      C1710   1.419       .  A
C1710      C1711   1.516       .  S
C1711      F1715   1.384       .  S
C1711      F1716   1.381       .  S
C1711      F1717   1.384       .  S
C1714      F1719   1.383       .  S
C1721      C1722   1.393       .  A
C1721      C1726   1.404       .  A
C1721      H1728   1.084       .  S
C1722      C1723   1.414       .  A
C1723      C1724   1.399       .  A
C1723      C1730   1.517       .  S
C1724      C1725   1.406       .  A
C1724      H1729   1.075       .  S
C1725      C1726   1.431       .  A
C1726      C1727   1.517       .  S
C1727      F1731   1.384       .  S
C1727      F1732   1.382       .  S
C1727      F1733   1.382       .  S
C1730      F1734   1.383       .  S
C1730      F1735   1.384       .  S
C1730      F1736   1.383       .  S
C1737      C1738   1.409       .  A
C1737      C1742   1.397       .  A
C1737      H1744   1.080       .  S
C1738      C1739   1.428       .  A
C1739      C1740   1.410       .  A
C1739      C1746   1.518       .  S
C1740      C1741   1.399       .  A
C1740      H1745   1.083       .  S
C1741      C1742   1.408       .  A
C1742      C1743   1.520       .  S
C1743      F1747   1.385       .  S
C1743      F1748   1.382       .  S
C1743      F1749   1.382       .  S
C1746      F1750   1.383       .  S
C1746      F1751   1.382       .  S
C1746      F1752   1.385       .  S
C1753      C1754   1.412       .  A
C1753      C1758   1.398       .  A
C1753      H1760   1.080       .  S
C1754      C1755   1.425       .  A
C1755      C1756   1.412       .  A
C1755      C1762   1.514       .  S
C1756      C1757   1.400       .  A
C1756      H1761   1.083       .  S
C1757      C1758   1.409       .  A
C1758      C1759   1.523       .  S
C1759      F1763   1.385       .  S
C1759      F1764   1.382       .  S
C1759      F1765   1.382       .  S
C1762      F1766   1.380       .  S
C1762      F1767   1.383       .  S
C1762      F1768   1.385       .  S
C1769      C1770   1.405       .  A
C1769      C1774   1.409       .  A
C1769      H1776   1.085       .  S
C1770      C1771   1.423       .  A
C1771      C1772   1.413       .  A
C1771      C1778   1.518       .  S
C1772      C1773   1.404       .  A
C1772      H1777   1.084       .  S
C1773      C1774   1.418       .  A
C1774      C1775   1.517       .  S
C1775      F1779   1.384       .  S
C1775      F1780   1.379       .  S
C1775      F3773   1.383       .  S
C1778      F1782   1.382       .  S
C1778      F1783   1.382       .  S
C1778      F1784   1.384       .  S
F1781      C3767   1.383       .  S
C1785      C1786   1.400       .  A
C1785      C1790   1.404       .  A
C1785      H1792   1.085       .  S
C1786      C1787   1.421       .  A
C1787      C1788   1.415       .  A
C1787      C1794   1.520       .  S
C1788      C1789   1.406       .  A
C1788      H1793   1.083       .  S
C1789      C1790   1.418       .  A
C1790      C1791   1.515       .  S
C1791      F3787   1.384       .  S
C1791      F1796   1.382       .  S
C1791      F3789   1.379       .  S
C1794      F1798   1.383       .  S
C1794      F1799   1.381       .  S
C1794      F1800   1.385       .  S
F1795      C3783   1.384       .  S
F1797      C3783   1.377   1_455  S
C1801      C1802   1.411       .  A
C1801      C1806   1.404       .  A
C1801      H1808   1.076       .  S
C1802      C1803   1.426       .  A
C1803      C1804   1.418       .  A
C1803      C1810   1.518       .  S
C1804      C1805   1.405       .  A
C1804      H1809   1.083       .  S
C1805      C1806   1.412       .  A
C1806      C1807   1.522       .  S
C1807      F1811   1.384       .  S
C1807      F1812   1.383       .  S
C1807      F1813   1.381       .  S
C1810      F1814   1.384       .  S
C1810      F1815   1.382       .  S
C1810      F1816   1.384       .  S
C1817      C1818   1.404       .  A
C1817      C1822   1.411       .  A
C1817      H1824   1.084       .  S
C1818      C1819   1.420       .  A
C1819      C1820   1.400       .  A
C1819      C1826   1.521       .  S
C1820      C1821   1.404       .  A
C1820      H1825   1.085       .  S
C1821      C1822   1.422       .  A
C1822      C1823   1.516       .  S
C1823      F1827   1.383       .  S
C1823      F1828   1.380       .  S
C1823      F1829   1.384       .  S
C1826      F1830   1.382       .  S
C1826      F1831   1.383       .  S
C1826      F1832   1.385       .  S
C1833      C1834   1.404       .  A
C1833      C1838   1.405       .  A
C1833      H1840   1.084       .  S
C1834      C1835   1.417       .  A
C1835      C1836   1.407       .  A
C1835      C1842   1.517       .  S
C1836      C1837   1.402       .  A
C1836      H1841   1.083       .  S
C1837      C1838   1.416       .  A
C1838      C1839   1.520       .  S
C1839      F1843   1.385       .  S
C1839      F1844   1.382       .  S
C1839      F1845   1.381       .  S
C1842      F1846   1.383       .  S
C1842      F1847   1.381       .  S
C1842      F1848   1.385       .  S
C1849      C1850   1.402       .  A
C1849      C1854   1.403       .  A
C1849      H1856   1.085       .  S
C1850      C1851   1.418       .  A
C1851      C1852   1.406       .  A
C1851      C1858   1.520       .  S
C1852      C1853   1.403       .  A
C1852      H1857   1.085       .  S
C1853      C1854   1.417       .  A
C1854      C1855   1.520       .  S
C1855      F1859   1.383       .  S
C1855      F1860   1.383       .  S
C1855      F1861   1.382       .  S
C1858      F1862   1.383       .  S
C1858      F1863   1.383       .  S
C1858      F1864   1.383       .  S
C1865      C1866   1.403       .  A
C1865      C1870   1.412       .  A
C1865      H1872   1.085       .  S
C1866      C1867   1.413       .  A
C1867      C1868   1.404       .  A
C1867      C1874   1.518       .  S
C1868      C1869   1.407       .  A
C1868      H1873   1.083       .  S
C1869      C1870   1.422       .  A
C1870      C1871   1.516       .  S
C1871      F1875   1.384       .  S
C1871      F1876   1.382       .  S
C1871      F1877   1.383       .  S
C1874      F1878   1.385       .  S
C1874      F1879   1.383       .  S
C1874      F3872   1.380       .  S
F1880      C3866   1.381       .  S
C1881      C1882   1.406       .  A
C1881      C1886   1.415       .  A
C1881      H1888   1.083       .  S
C1882      C1883   1.414       .  A
C1883      C1884   1.400       .  A
C1883      C1890   1.518       .  S
C1884      C1885   1.401       .  A
C1884      H1889   1.084       .  S
C1885      C1886   1.417       .  A
C1886      C1887   1.515       .  S
C1887      F1891   1.384       .  S
C1887      F1892   1.382       .  S
C1887      F1893   1.383       .  S
C1890      F1894   1.382       .  S
C1890      F1895   1.381       .  S
C1890      F3888   1.380       .  S
F1896      C3882   1.384       .  S
C1897      C1898   1.401       .  A
C1897      C1902   1.405       .  A
C1897      H1904   1.083       .  S
C1898      C1899   1.411       .  A
C1899      C1900   1.404       .  A
C1899      C1906   1.516       .  S
C1900      C1901   1.403       .  A
C1900      H1905   1.083       .  S
C1901      C1902   1.419       .  A
C1902      C1903   1.522       .  S
C1903      F1907   1.385       .  S
C1903      F1908   1.381       .  S
C1903      F1909   1.382       .  S
C1906      F1910   1.383       .  S
C1906      F1911   1.383       .  S
C1906      F1912   1.384       .  S
C1913      C1914   1.404       .  A
C1913      C1918   1.403       .  A
C1913      H1920   1.084       .  S
C1914      C1915   1.417       .  A
C1915      C1916   1.403       .  A
C1915      C1922   1.517       .  S
C1916      C1917   1.400       .  A
C1916      H1921   1.085       .  S
C1917      C1918   1.412       .  A
C1918      C1919   1.518       .  S
C1919      F1923   1.384       .  S
C1919      F1924   1.383       .  S
C1919      F1925   1.381       .  S
C1922      F1926   1.383       .  S
C1922      F1927   1.382       .  S
C1922      F1928   1.384       .  S
C1929      C1930   1.408       .  A
C1929      C1934   1.418       .  A
C1929      H1936   1.083       .  S
C1930      C1931   1.423       .  A
C1931      C1932   1.414       .  A
C1931      C1938   1.522       .  S
C1932      C1933   1.403       .  A
C1932      H1937   1.082       .  S
C1933      C1934   1.417       .  A
C1934      C1935   1.516       .  S
C1935      F1939   1.384       .  S
C1935      F1940   1.383       .  S
C1935      F1941   1.383       .  S
C1938      F1942   1.380       .  S
C1938      F1943   1.382       .  S
C1938      F1944   1.384       .  S
C1945      C1946   1.403       .  A
C1945      C1950   1.410       .  A
C1945      H1952   1.083       .  S
C1946      C1947   1.416       .  A
C1947      C1948   1.413       .  A
C1947      C1954   1.517       .  S
C1948      C1949   1.405       .  A
C1948      H1953   1.083       .  S
C1949      C1950   1.420       .  A
C1950      C1951   1.521       .  S
C1951      F3947   1.384       .  S
C1951      F1956   1.383       .  S
C1951      F1957   1.381       .  S
C1954      F1958   1.383       .  S
C1954      F1959   1.383       .  S
C1954      F1960   1.384       .  S
F1955      C3943   1.383       .  S
C1961      C1962   1.401       .  A
C1961      C1966   1.410       .  A
C1961      H1968   1.083       .  S
C1962      C1963   1.412       .  A
C1963      C1964   1.405       .  A
C1963      C1970   1.519       .  S
C1964      C1965   1.408       .  A
C1964      H1969   1.083       .  S
C1965      C1966   1.424       .  A
C1966      C1967   1.518       .  S
C1967      F1971   1.385       .  S
C1967      F1972   1.383       .  S
C1967      F1973   1.381       .  S
C1970      F1974   1.382       .  S
C1970      F1975   1.382       .  S
C1970      F1976   1.384       .  S
C1977      C1978   1.404       .  A
C1977      C1982   1.414       .  A
C1977      H1984   1.083       .  S
C1978      C1979   1.415       .  A
C1979      C1980   1.401       .  A
C1979      C1986   1.520       .  S
C1980      C1981   1.407       .  A
C1980      H1985   1.083       .  S
C1981      C1982   1.424       .  A
C1982      C1983   1.518       .  S
C1983      F1987   1.385       .  S
C1983      F1988   1.380       .  S
C1983      F1989   1.383       .  S
C1986      F1990   1.384       .  S
C1986      F1991   1.381       .  S
C1986      F1992   1.383       .  S
N1993      C1998   1.355       .  A
N1993      C1997   1.352       .  A
N1993      H2025   1.024       .  S
N1994      C2001   1.355       .  A
N1994      C2002   1.357       .  A
N1995      C2000   1.355       .  A
N1995      C1999   1.358       .  A
N1995      H2026   1.016       .  S
N1996      C2003   1.350       .  A
N1996      C2004   1.349       .  A
C1997      C2005   1.387       .  A
C1997      C2013   1.412       .  A
C1998      C2014   1.415       .  A
C1998      C2006   1.388       .  A
C1999      C2007   1.388       .  A
C1999      C2016   1.419       .  A
C2000      C2015   1.420       .  A
C2000      C2008   1.388       .  A
C2001      C2013   1.422       .  A
C2001      C2009   1.387       .  A
C2002      C2016   1.424       .  A
C2002      C2010   1.386       .  A
C2003      C2011   1.386       .  A
C2003      C2014   1.410       .  A
C2004      C2012   1.387       .  A
C2004      C2015   1.412       .  A
C2005      C2006   1.372       .  A
C2005      H2017   1.082       .  S
C2006      H2018   1.082       .  S
C2007      C2008   1.370       .  A
C2007      H2019   1.082       .  S
C2008      H2020   1.082       .  S
C2009      C2010   1.380       .  A
C2009      H2021   1.082       .  S
C2010      H2022   1.082       .  S
C2011      C2012   1.374       .  A
C2011      H2023   1.082       .  S
C2012      H2024   1.082       .  S
C2013      C2945   1.490       .  S
C2014      C2974   1.486       .  S
C2015      C2958   1.484       .  S
C2016      C2926   1.503       .  S
N2027      C2032   1.356       .  A
N2027      C2031   1.354       .  A
N2027      H2059   1.039       .  S
N2028      C2035   1.343       .  A
N2028      C2036   1.347       .  A
N2029      C2034   1.348       .  A
N2029      C2033   1.354       .  A
N2029      H2060   1.040       .  S
N2030      C2037   1.355       .  A
N2030      C2038   1.353       .  A
C2031      C2039   1.390       .  A
C2031      C2047   1.422       .  A
C2032      C2048   1.418       .  A
C2032      C2040   1.385       .  A
C2033      C2041   1.386       .  A
C2033      C2050   1.415       .  A
C2034      C2049   1.408       .  A
C2034      C2042   1.387       .  A
C2035      C2047   1.404       .  A
C2035      C2043   1.387       .  A
C2036      C2050   1.407       .  A
C2036      C2044   1.385       .  A
C2037      C2045   1.386       .  A
C2037      C2048   1.419       .  A
C2038      C2046   1.386       .  A
C2038      C2049   1.416       .  A
C2039      C2040   1.377       .  A
C2039      H2051   1.082       .  S
C2040      H2052   1.082       .  S
C2041      C2042   1.374       .  A
C2041      H2053   1.082       .  S
C2042      H2054   1.081       .  S
C2043      C2044   1.376       .  A
C2043      H2055   1.082       .  S
C2044      H2056   1.082       .  S
C2045      C2046   1.379       .  A
C2045      H2057   1.082       .  S
C2046      H2058   1.082       .  S
C2047      C2897   1.480       .  S
C2048      C2865   1.506       .  S
C2049      C2878   1.485       .  S
C2050      C2910   1.491       .  S
C2061      N2079   1.347       .  A
C2061      C2098   1.452       .  S
C2061      C2913   1.463       .  S
N2062      N2079   1.325       .  A
N2062      N2084   1.320       .  A
N2062     Co3095   2.075       .  S
C2063      N2088   1.345       .  A
C2063      H2108   1.078       .  S
C2063      C2101   1.468       .  S
H2064      C2105   1.078       .  S
C2065      N2089   1.336       .  A
C2065      H2094   1.080       .  S
C2065      C2069   1.455       .  S
Co2066     N3080   2.083   1_545  S
Co2066     N3070   2.082   1_545  S
Co2066     N2106   2.083       .  S
Co2066     N2082   2.079       .  S
Co2066    Cl2110   2.433       .  S
N2067      C2105   1.343       .  A
N2067      N2074   1.321       .  A
N2067     Co3064   2.096       .  S
Co2068     N3063   2.117   1_545  S
Co2068     N3067   2.102   1_545  S
Co2068     N2088   2.093       .  S
Co2068     N2075   2.113       .  S
Co2068    Cl2110   2.472       .  S
C2069      N2107   1.361       .  A
C2069      C2814   1.497       .  S
N2070      N2077   1.320       .  A
N2070      N2100   1.319       .  A
N2070     Co3099   2.062       .  S
N2071      N2089   1.317       .  A
N2071      N2107   1.333       .  A
N2071     Co3064   2.116       .  S
N2072      C2101   1.350       .  A
N2072      N2082   1.321       .  A
H2073      C2098   1.081       .  S
N2074      N2095   1.322       .  A
N2074     Co3062   2.083       .  S
N2075      N2093   1.318       .  A
N2075      N2080   1.329       .  A
C2076      N2080   1.359       .  A
C2076      C2104   1.461       .  S
C2076      C2798   1.503       .  S
N2077      C2092   1.348       .  A
N2077     Co3095   2.102       .  S
C2078      N2106   1.336       .  A
C2078      H2112   1.082       .  S
C2078      C2081   1.457       .  S
C2081      N2102   1.348       .  A
C2081      C2894   1.470       .  S
N2082      N2088   1.318       .  A
N2083      C2109   1.343       .  A
N2083      N2085   1.317       .  A
N2083     Co2099   2.077       .  S
N2084      C2098   1.337       .  A
N2084     Co3062   2.079       .  S
N2085      N2113   1.321       .  A
N2085     Co2103   2.079       .  S
H2086      C2109   1.079       .  S
H2087      C2104   1.080       .  S
N2089     Co3099   2.070       .  S
N2090      N2102   1.325       .  A
N2090      N2106   1.320       .  A
N2090     Co2099   2.076       .  S
C2091      N2095   1.348       .  A
C2091      C2105   1.469       .  S
C2091      C2977   1.487       .  S
C2092      H2096   1.081       .  S
C2092      C2111   1.465       .  S
N2093      C2104   1.333       .  A
N2093     Co2103   2.066       .  S
C2097      N2113   1.347       .  A
C2097      C2109   1.462       .  S
C2097      C2830   1.476       .  S
Co2099     N3058   2.076   1_545  S
Co2099     N3073   2.080   1_545  S
Co2099    Cl2110   2.472       .  S
N2100      C2111   1.342       .  A
C2101      C2961   1.489       .  S
Co2103     N3066   2.068   1_545  S
Co2103     N3085   2.075   1_545  S
Co2103    Cl2110   2.429       .  S
C2111      C2849   1.470       .  S
N2114      C2119   1.354       .  A
N2114      C2118   1.352       .  A
N2114      H2146   1.045       .  S
N2115      C2122   1.346       .  A
N2115      C2123   1.349       .  A
N2116      C2121   1.347       .  A
N2116      C2120   1.351       .  A
N2116      H2147   1.049       .  S
N2117      C2124   1.352       .  A
N2117      C2125   1.350       .  A
C2118      C2126   1.387       .  A
C2118      C2134   1.418       .  A
C2119      C2135   1.419       .  A
C2119      C2127   1.388       .  A
C2120      C2128   1.386       .  A
C2120      C2137   1.412       .  A
C2121      C2136   1.410       .  A
C2121      C2129   1.387       .  A
C2122      C2134   1.410       .  A
C2122      C2130   1.388       .  A
C2123      C2137   1.407       .  A
C2123      C2131   1.385       .  A
C2124      C2132   1.385       .  A
C2124      C2135   1.414       .  A
C2125      C2133   1.386       .  A
C2125      C2136   1.412       .  A
C2126      C2127   1.379       .  A
C2126      H2138   1.082       .  S
C2127      H2139   1.082       .  S
C2128      C2129   1.379       .  A
C2128      H2140   1.082       .  S
C2129      H2141   1.082       .  S
C2130      C2131   1.375       .  A
C2130      H2142   1.082       .  S
C2131      H2143   1.082       .  S
C2132      C2133   1.380       .  A
C2132      H2144   1.082       .  S
C2133      H2145   1.082       .  S
C2134      C2782   1.485       .  S
C2135      C2817   1.504       .  S
C2136      C2801   1.486       .  S
C2137      C2766   1.488       .  S
N2148      C2153   1.349       .  A
N2148      C2152   1.352       .  A
N2148      H2180   1.038       .  S
N2149      C2156   1.351       .  A
N2149      C2157   1.348       .  A
N2150      C2155   1.354       .  A
N2150      C2154   1.353       .  A
N2150      H2181   1.038       .  S
N2151      C2158   1.349       .  A
N2151      C2159   1.350       .  A
C2152      C2160   1.388       .  A
C2152      C2168   1.413       .  A
C2153      C2169   1.410       .  A
C2153      C2161   1.387       .  A
C2154      C2162   1.388       .  A
C2154      C2171   1.418       .  A
C2155      C2170   1.416       .  A
C2155      C2163   1.386       .  A
C2156      C2168   1.409       .  A
C2156      C2164   1.384       .  A
C2157      C2171   1.413       .  A
C2157      C2165   1.388       .  A
C2158      C2166   1.386       .  A
C2158      C2169   1.409       .  A
C2159      C2167   1.386       .  A
C2159      C2170   1.411       .  A
C2160      C2161   1.374       .  A
C2160      H2172   1.082       .  S
C2161      H2173   1.082       .  S
C2162      C2163   1.377       .  A
C2162      H2174   1.082       .  S
C2163      H2175   1.082       .  S
C2164      C2165   1.374       .  A
C2164      H2176   1.082       .  S
C2165      H2177   1.082       .  S
C2166      C2167   1.373       .  A
C2166      H2178   1.083       .  S
C2167      H2179   1.082       .  S
C2168      C2833   1.487       .  S
C2169      C2737   1.477       .  S
C2170      C2753   1.489       .  S
C2171      C2846   1.486       .  S
C2182      N2200   1.342       .  A
C2182      C2219   1.478       .  S
C2182      C2929   1.491       .  S
N2183      N2200   1.321       .  A
N2183      N2205   1.323       .  A
C2184      N2209   1.346       .  A
C2184      H2229   1.079       .  S
C2184      C2222   1.472       .  S
H2185      C2226   1.082       .  S
C2186      N2210   1.350       .  A
C2186      H2215   1.079       .  S
C2186      C2190   1.476       .  S
Co2187     N3201   2.124       .  S
Co2187     N2195   2.095       .  S
Co2187     N3223   2.066       .  S
Co2187     N2203   2.076       .  S
N2188      C2226   1.334       .  A
N2188      N2195   1.323       .  A
Co2189     N2192   2.065       .  S
Co2189     N2196   2.125       .  S
Co2189    Cl2231   2.455       .  S
C2190      N2228   1.341       .  A
C2190      C2881   1.482       .  S
N2191      N2198   1.322       .  A
N2191      N2221   1.336       .  A
N2191     Co3220   2.124       .  S
N2192      N2210   1.321       .  A
N2192      N2228   1.316       .  A
N2193      C2222   1.344       .  A
N2193      N2203   1.318       .  A
H2194      C2219   1.081       .  S
N2195      N2216   1.329       .  A
N2196      N2214   1.321       .  A
N2196      N2201   1.337       .  A
C2197      N2201   1.365       .  A
C2197      C2225   1.447       .  S
C2197      C2686   1.493       .  S
N2198      C2213   1.332       .  A
N2198     Co2220   2.069       .  S
C2199      N2227   1.332       .  A
C2199      H2233   1.082       .  S
C2199      C2202   1.444       .  S
C2202      N2223   1.361       .  A
C2202      C2702   1.482       .  S
N2203      N2209   1.320       .  A
N2204      C2230   1.352       .  A
N2204      N2206   1.319       .  A
N2204     Co2220   2.102       .  S
N2205      C2219   1.354       .  A
N2205     Co3183   2.125       .  S
N2206      N2234   1.317       .  A
N2206     Co3220   2.060       .  S
H2207      C2230   1.081       .  S
H2208      C2225   1.081       .  S
N2210     Co2224   2.100       .  S
N2211      N2223   1.335       .  A
N2211      N2227   1.323       .  A
C2212      N2216   1.355       .  A
C2212      C2226   1.447       .  S
C2212      C2942   1.474       .  S
C2213      H2217   1.082       .  S
C2213      C2232   1.446       .  S
N2214      C2225   1.333       .  A
N2214     Co2224   2.072       .  S
C2218      N2234   1.340       .  A
C2218      C2230   1.472       .  S
C2218      C2718   1.478       .  S
Co2220    Cl3227   2.447       .  S
N2221      C2232   1.362       .  A
C2222      C2673   1.482       .  S
Co2224     N3187   2.122       .  S
Co2224     N3202   2.053       .  S
Co2224    Cl2231   2.451       .  S
N2227     Co3183   2.072       .  S
Cl2231    Co3216   2.453       .  S
C2232      C2862   1.488       .  S
C2235      N2253   1.355       .  A
C2235      C2272   1.452       .  S
C2235      C2622   1.479       .  S
N2236      N2253   1.331       .  A
N2236      N2258   1.322       .  A
C2237      N2262   1.339       .  A
C2237      H2282   1.081       .  S
C2237      C2275   1.454       .  S
H2238      C2279   1.081       .  S
C2239      N2263   1.329       .  A
C2239      H2268   1.075       .  S
C2239      C2243   1.455       .  S
Co2240     N2280   2.071       .  S
Co2240     N2256   2.103       .  S
Co2240    Cl2284   2.426   1_556  S
N2241      C2279   1.339       .  A
N2241      N2248   1.319       .  A
Co2242     N2262   2.072   1_554  S
Co2242     N2249   2.096       .  S
Co2242    Cl2284   2.476       .  S
C2243      N2281   1.352       .  A
C2243      C2558   1.476       .  S
N2244      N2251   1.320       .  A
N2244      N2274   1.325       .  A
N2245      N2263   1.317       .  A
N2245      N2281   1.327       .  A
N2246      C2275   1.352       .  A
N2246      N2256   1.325       .  A
H2247      C2272   1.082       .  S
N2248      N2269   1.323       .  A
N2249      N2267   1.316       .  A
N2249      N2254   1.332       .  A
C2250      N2254   1.356       .  A
C2250      C2278   1.454       .  S
C2250      C2542   1.486       .  S
N2251      C2266   1.346       .  A
C2252      N2280   1.335       .  A
C2252      H2286   1.081       .  S
C2252      C2255   1.460       .  S
C2255      N2276   1.351       .  A
C2255      C2606   1.487       .  S
N2256      N2262   1.321       .  A
N2257      C2283   1.343       .  A
N2257      N2259   1.317       .  A
N2257     Co2273   2.093       .  S
N2258      C2272   1.337       .  A
N2259      N2287   1.319       .  A
N2259     Co2277   2.070       .  S
H2260      C2283   1.081       .  S
H2261      C2278   1.076       .  S
N2264      N2276   1.326       .  A
N2264      N2280   1.317       .  A
N2264     Co2273   2.082   1_556  S
C2265      N2269   1.348       .  A
C2265      C2279   1.455       .  S
C2265      C2654   1.467       .  S
C2266      H2270   1.081       .  S
C2266      C2285   1.477       .  S
N2267      C2278   1.329       .  A
N2267     Co2277   2.065       .  S
C2271      N2287   1.345       .  A
C2271      C2283   1.473       .  S
C2271      C2574   1.494       .  S
Co2273    Cl2284   2.475       .  S
N2274      C2285   1.349       .  A
C2275      C2641   1.471       .  S
Co2277    Cl2284   2.418       .  S
C2285      C2590   1.505       .  S
N2288      C2293   1.354       .  A
N2288      C2292   1.353       .  A
N2288      H2320   1.040       .  S
N2289      C2296   1.354       .  A
N2289      C2297   1.353       .  A
N2290      C2295   1.356       .  A
N2290      C2294   1.353       .  A
N2290      H2321   1.041       .  S
N2291      C2298   1.348       .  A
N2291      C2299   1.350       .  A
C2292      C2300   1.387       .  A
C2292      C2308   1.414       .  A
C2293      C2309   1.416       .  A
C2293      C2301   1.388       .  A
C2294      C2302   1.388       .  A
C2294      C2311   1.419       .  A
C2295      C2310   1.418       .  A
C2295      C2303   1.385       .  A
C2296      C2308   1.416       .  A
C2296      C2304   1.385       .  A
C2297      C2311   1.421       .  A
C2297      C2305   1.387       .  A
C2298      C2306   1.385       .  A
C2298      C2309   1.407       .  A
C2299      C2307   1.387       .  A
C2299      C2310   1.413       .  A
C2300      C2301   1.374       .  A
C2300      H2312   1.082       .  S
C2301      H2313   1.082       .  S
C2302      C2303   1.376       .  A
C2302      H2314   1.082       .  S
C2303      H2315   1.082       .  S
C2304      C2305   1.379       .  A
C2304      H2316   1.082       .  S
C2305      H2317   1.082       .  S
C2306      C2307   1.374       .  A
C2306      H2318   1.082       .  S
C2307      H2319   1.082       .  S
C2308      C2510   1.496       .  S
C2309      C2609   1.484       .  S
C2310      C2625   1.500       .  S
C2311      C2526   1.503       .  S
N2322      C2327   1.354       .  A
N2322      C2326   1.350       .  A
N2322      H2354   1.042       .  S
N2323      C2330   1.348       .  A
N2323      C2331   1.350       .  A
N2324      C2329   1.351       .  A
N2324      C2328   1.352       .  A
N2324      H2355   1.040       .  S
N2325      C2332   1.344       .  A
N2325      C2333   1.342       .  A
C2326      C2334   1.386       .  A
C2326      C2342   1.410       .  A
C2327      C2343   1.415       .  A
C2327      C2335   1.387       .  A
C2328      C2336   1.384       .  A
C2328      C2345   1.410       .  A
C2329      C2344   1.416       .  A
C2329      C2337   1.389       .  A
C2330      C2342   1.409       .  A
C2330      C2338   1.386       .  A
C2331      C2345   1.410       .  A
C2331      C2339   1.386       .  A
C2332      C2340   1.386       .  A
C2332      C2343   1.404       .  A
C2333      C2341   1.387       .  A
C2333      C2344   1.403       .  A
C2334      C2335   1.376       .  A
C2334      H2346   1.082       .  S
C2335      H2347   1.082       .  S
C2336      C2337   1.377       .  A
C2336      H2348   1.082       .  S
C2337      H2349   1.082       .  S
C2338      C2339   1.379       .  A
C2338      H2350   1.082       .  S
C2339      H2351   1.082       .  S
C2340      C2341   1.376       .  A
C2340      H2352   1.083       .  S
C2341      H2353   1.082       .  S
C2342      C2478   1.483       .  S
C2343      C2638   1.484       .  S
C2344      C2657   1.477       .  S
C2345      C2494   1.490       .  S
C2356      N2374   1.347       .  A
C2356      C2393   1.452       .  S
C2356      C2785   1.463       .  S
N2357      N2374   1.326       .  A
N2357      N2379   1.319       .  A
N2357     Co2394   2.078       .  S
C2358      N2383   1.339       .  A
C2358      H2403   1.075       .  S
C2358      C2396   1.470       .  S
H2359      C2400   1.077       .  S
C2360      N2384   1.348       .  A
C2360      H2389   1.082       .  S
C2360      C2364   1.472       .  S
Co2361     N2369   2.077       .  S
Co2361     N3373   2.059       .  S
Co2361    Cl2405   2.447       .  S
N2362      C2400   1.349       .  A
N2362      N2369   1.316       .  A
N2362     Co2363   2.100       .  S
Co2363     N2366   2.077       .  S
Co2363     N3379   2.084       .  S
Co2363     N3366   2.086       .  S
Co2363    Cl2405   2.454       .  S
C2364      N2402   1.349       .  A
C2364      C2513   1.492       .  S
N2365      N2372   1.320       .  A
N2365      N2395   1.324       .  A
N2366      N2384   1.321       .  A
N2366      N2402   1.324       .  A
N2367      C2396   1.352       .  A
N2367      N2377   1.319       .  A
H2368      C2393   1.082       .  S
N2369      N2390   1.317       .  A
N2370      N2388   1.317       .  A
N2370      N2375   1.322       .  A
N2370     Co3359   2.084       .  S
C2371      N2375   1.351       .  A
C2371      C2399   1.464       .  S
C2371      C2481   1.477       .  S
N2372      C2387   1.339       .  A
N2372     Co2394   2.093       .  S
C2373      N2401   1.336       .  A
C2373      H2407   1.081       .  S
C2373      C2376   1.453       .  S
C2376      N2397   1.352       .  A
C2376      C2769   1.473       .  S
N2377      N2383   1.313       .  A
N2377     Co3357   2.074   1_545  S
N2378      C2404   1.341       .  A
N2378      N2380   1.320       .  A
N2378     Co3390   2.085   1_545  S
N2379      C2393   1.335       .  A
N2380      N2408   1.328       .  A
H2381      C2404   1.082       .  S
H2382      C2399   1.080       .  S
N2383     Co3359   2.070       .  S
N2384     Co2398   2.112       .  S
N2385      N2397   1.328       .  A
N2385      N2401   1.319       .  A
N2385     Co3390   2.094   1_545  S
C2386      N2390   1.350       .  A
C2386      C2400   1.480       .  S
C2386      C2750   1.505       .  S
C2387      H2391   1.081       .  S
C2387      C2406   1.468       .  S
N2388      C2399   1.339       .  A
N2388     Co3394   2.079       .  S
C2392      N2408   1.357       .  A
C2392      C2404   1.459       .  S
C2392      C2497   1.490       .  S
Co2394     N3374   2.072       .  S
Co2394     N3381   2.098       .  S
N2395      C2406   1.352       .  A
C2396      C2734   1.495       .  S
Co2398     N3384   2.090       .  S
Co2398    Cl2405   2.446       .  S
C2406      C2529   1.496       .  S
N2409      C2414   1.355       .  A
N2409      C2413   1.357       .  A
N2409      H2441   1.043       .  S
N2410      C2417   1.353       .  A
N2410      C2418   1.351       .  A
N2411      C2416   1.354       .  A
N2411      C2415   1.349       .  A
N2411      H2442   1.041       .  S
N2412      C2419   1.348       .  A
N2412      C2420   1.352       .  A
C2413      C2421   1.384       .  A
C2413      C2429   1.416       .  A
C2414      C2430   1.417       .  A
C2414      C2422   1.388       .  A
C2415      C2423   1.384       .  A
C2415      C2432   1.407       .  A
C2416      C2431   1.416       .  A
C2416      C2424   1.387       .  A
C2417      C2429   1.410       .  A
C2417      C2425   1.385       .  A
C2418      C2432   1.415       .  A
C2418      C2426   1.389       .  A
C2419      C2427   1.385       .  A
C2419      C2430   1.409       .  A
C2420      C2428   1.387       .  A
C2420      C2431   1.414       .  A
C2421      C2422   1.376       .  A
C2421      H2433   1.082       .  S
C2422      H2434   1.081       .  S
C2423      C2424   1.374       .  A
C2423      H2435   1.082       .  S
C2424      H2436   1.080       .  S
C2425      C2426   1.365       .  A
C2425      H2437   1.082       .  S
C2426      H2438   1.082       .  S
C2427      C2428   1.372       .  A
C2427      H2439   1.082       .  S
C2428      H2440   1.082       .  S
C2429      C2705   1.500       .  S
C2430      C2721   1.521       .  S
C2431      C2545   1.503       .  S
C2432      C2561   1.478       .  S
N2443      C2448   1.351       .  A
N2443      C2447   1.353       .  A
N2443      H2475   1.039       .  S
N2444      C2451   1.353       .  A
N2444      C2452   1.351       .  A
N2445      C2450   1.357       .  A
N2445      C2449   1.353       .  A
N2445      H2476   1.034       .  S
N2446      C2453   1.351       .  A
N2446      C2454   1.353       .  A
C2447      C2455   1.386       .  A
C2447      C2463   1.411       .  A
C2448      C2464   1.412       .  A
C2448      C2456   1.388       .  A
C2449      C2457   1.387       .  A
C2449      C2466   1.421       .  A
C2450      C2465   1.423       .  A
C2450      C2458   1.387       .  A
C2451      C2463   1.413       .  A
C2451      C2459   1.385       .  A
C2452      C2466   1.418       .  A
C2452      C2460   1.389       .  A
C2453      C2461   1.386       .  A
C2453      C2464   1.413       .  A
C2454      C2462   1.387       .  A
C2454      C2465   1.418       .  A
C2455      C2456   1.374       .  A
C2455      H2467   1.083       .  S
C2456      H2468   1.082       .  S
C2457      C2458   1.380       .  A
C2457      H2469   1.082       .  S
C2458      H2470   1.082       .  S
C2459      C2460   1.368       .  A
C2459      H2471   1.082       .  S
C2460      H2472   1.082       .  S
C2461      C2462   1.371       .  A
C2461      H2473   1.082       .  S
C2462      H2474   1.082       .  S
C2463      C2593   1.491       .  S
C2464      C2577   1.482       .  S
C2465      C2689   1.500       .  S
C2466      C2670   1.488       .  S
C2477      C2478   1.398       .  A
C2477      C2482   1.401       .  A
C2477      H2484   1.084       .  S
C2478      C2479   1.414       .  A
C2479      C2480   1.408       .  A
C2479      C2486   1.517       .  S
C2480      C2481   1.404       .  A
C2480      H2485   1.083       .  S
C2481      C2482   1.423       .  A
C2482      C2483   1.520       .  S
C2483      F2487   1.383       .  S
C2483      F2488   1.380       .  S
C2483      F2489   1.381       .  S
C2486      F2490   1.381       .  S
C2486      F2491   1.383       .  S
C2486      F2492   1.385       .  S
C2493      C2494   1.398       .  A
C2493      C2498   1.404       .  A
C2493      H2500   1.084       .  S
C2494      C2495   1.416       .  A
C2495      C2496   1.414       .  A
C2495      C2502   1.518       .  S
C2496      C2497   1.407       .  A
C2496      H2501   1.083       .  S
C2497      C2498   1.420       .  A
C2498      C2499   1.512       .  S
C2499      F2503   1.385       .  S
C2499      F2504   1.383       .  S
C2499      F2505   1.384       .  S
C2502      F2506   1.383       .  S
C2502      F2507   1.382       .  S
C2502      F2508   1.384       .  S
C2509      C2510   1.401       .  A
C2509      C2514   1.410       .  A
C2509      H2516   1.083       .  S
C2510      C2511   1.416       .  A
C2511      C2512   1.413       .  A
C2511      C2518   1.518       .  S
C2512      C2513   1.406       .  A
C2512      H2517   1.080       .  S
C2513      C2514   1.419       .  A
C2514      C2515   1.515       .  S
C2515      F2519   1.385       .  S
C2515      F2520   1.380       .  S
C2515      F2521   1.383       .  S
C2518      F2522   1.380       .  S
C2518      F2523   1.383       .  S
C2518      F2524   1.381       .  S
C2525      C2526   1.407       .  A
C2525      C2530   1.407       .  A
C2525      H2532   1.083       .  S
C2526      C2527   1.420       .  A
C2527      C2528   1.406       .  A
C2527      C2534   1.519       .  S
C2528      C2529   1.408       .  A
C2528      H2533   1.083       .  S
C2529      C2530   1.423       .  A
C2530      C2531   1.521       .  S
C2531      F2535   1.385       .  S
C2531      F2536   1.378       .  S
C2531      F2537   1.383       .  S
C2534      F2538   1.383       .  S
C2534      F2539   1.381       .  S
C2534      F2540   1.385       .  S
C2541      C2542   1.408       .  A
C2541      C2546   1.416       .  A
C2541      H2548   1.084       .  S
C2542      C2543   1.415       .  A
C2543      C2544   1.394       .  A
C2543      C2550   1.519       .  S
C2544      C2545   1.403       .  A
C2544      H2549   1.081       .  S
C2545      C2546   1.424       .  A
C2546      C2547   1.518       .  S
C2547      F2551   1.383       .  S
C2547      F2552   1.383       .  S
C2547      F2553   1.383       .  S
C2550      F2554   1.382       .  S
C2550      F2555   1.383       .  S
C2550      F2556   1.383       .  S
C2557      C2558   1.407       .  A
C2557      C2562   1.402       .  A
C2557      H2564   1.082       .  S
C2558      C2559   1.414       .  A
C2559      C2560   1.405       .  A
C2559      C2566   1.517       .  S
C2560      C2561   1.403       .  A
C2560      H2565   1.083       .  S
C2561      C2562   1.413       .  A
C2562      C2563   1.523       .  S
C2563      F2567   1.382       .  S
C2563      F2568   1.380       .  S
C2563      F2569   1.383       .  S
C2566      F2570   1.383       .  S
C2566      F2571   1.382       .  S
C2566      F2572   1.385       .  S
C2573      C2574   1.409       .  A
C2573      C2578   1.406       .  A
C2573      H2580   1.080       .  S
C2574      C2575   1.431       .  A
C2575      C2576   1.402       .  A
C2575      C2582   1.520       .  S
C2576      C2577   1.394       .  A
C2576      H2581   1.083       .  S
C2577      C2578   1.410       .  A
C2578      C2579   1.517       .  S
C2579      F2583   1.385       .  S
C2579      F2584   1.382       .  S
C2579      F2585   1.383       .  S
C2582      F2586   1.381       .  S
C2582      F2587   1.383       .  S
C2582      F2588   1.385       .  S
C2589      C2590   1.411       .  A
C2589      C2594   1.409       .  A
C2589      H2596   1.080       .  S
C2590      C2591   1.433       .  A
C2591      C2592   1.407       .  A
C2591      C2598   1.519       .  S
C2592      C2593   1.395       .  A
C2592      H2597   1.083       .  S
C2593      C2594   1.412       .  A
C2594      C2595   1.519       .  S
C2595      F2599   1.384       .  S
C2595      F2600   1.383       .  S
C2595      F2601   1.382       .  S
C2598      F2602   1.382       .  S
C2598      F2603   1.374       .  S
C2598      F2604   1.386       .  S
C2605      C2606   1.403       .  A
C2605      C2610   1.397       .  A
C2605      H2612   1.075       .  S
C2606      C2607   1.422       .  A
C2607      C2608   1.411       .  A
C2607      C2614   1.518       .  S
C2608      C2609   1.402       .  A
C2608      H2613   1.083       .  S
C2609      C2610   1.412       .  A
C2610      C2611   1.522       .  S
C2611      F2615   1.382       .  S
C2611      F2616   1.381       .  S
C2611      F2617   1.385       .  S
C2614      F2618   1.383       .  S
C2614      F2619   1.383       .  S
C2614      F2620   1.385       .  S
C2621      C2622   1.403       .  A
C2621      C2626   1.411       .  A
C2621      H2628   1.084       .  S
C2622      C2623   1.412       .  A
C2623      C2624   1.404       .  A
C2623      C2630   1.517       .  S
C2624      C2625   1.406       .  A
C2624      H2629   1.083       .  S
C2625      C2626   1.423       .  A
C2626      C2627   1.519       .  S
C2627      F2631   1.384       .  S
C2627      F2632   1.382       .  S
C2627      F2633   1.383       .  S
C2630      F2634   1.384       .  S
C2630      F2635   1.379       .  S
C2630      F2636   1.384       .  S
C2637      C2638   1.402       .  A
C2637      C2642   1.401       .  A
C2637      H2644   1.084       .  S
C2638      C2639   1.414       .  A
C2639      C2640   1.407       .  A
C2639      C2646   1.517       .  S
C2640      C2641   1.403       .  A
C2640      H2645   1.083       .  S
C2641      C2642   1.412       .  A
C2642      C2643   1.515       .  S
C2643      F2647   1.385       .  S
C2643      F2648   1.383       .  S
C2643      F2649   1.376       .  S
C2646      F2650   1.384       .  S
C2646      F2651   1.383       .  S
C2646      F2652   1.381       .  S
C2653      C2654   1.401       .  A
C2653      C2658   1.403       .  A
C2653      H2660   1.081       .  S
C2654      C2655   1.416       .  A
C2655      C2656   1.401       .  A
C2655      C2662   1.518       .  S
C2656      C2657   1.398       .  A
C2656      H2661   1.083       .  S
C2657      C2658   1.417       .  A
C2658      C2659   1.522       .  S
C2659      F2663   1.381       .  S
C2659      F2664   1.383       .  S
C2659      F2665   1.385       .  S
C2662      F2666   1.380       .  S
C2662      F2667   1.384       .  S
C2662      F2668   1.385       .  S
C2669      C2670   1.404       .  A
C2669      C2674   1.410       .  A
C2669      H2676   1.083       .  S
C2670      C2671   1.413       .  A
C2671      C2672   1.402       .  A
C2671      C2678   1.520       .  S
C2672      C2673   1.406       .  A
C2672      H2677   1.081       .  S
C2673      C2674   1.419       .  A
C2674      C2675   1.517       .  S
C2675      F2679   1.385       .  S
C2675      F2680   1.383       .  S
C2675      F2681   1.381       .  S
C2678      F2682   1.382       .  S
C2678      F2683   1.383       .  S
C2678      F2684   1.385       .  S
C2685      C2686   1.408       .  A
C2685      C2690   1.419       .  A
C2685      H2692   1.083       .  S
C2686      C2687   1.424       .  A
C2687      C2688   1.404       .  A
C2687      C2694   1.520       .  S
C2688      C2689   1.398       .  A
C2688      H2693   1.085       .  S
C2689      C2690   1.419       .  A
C2690      C2691   1.517       .  S
C2691      F2695   1.384       .  S
C2691      F2696   1.383       .  S
C2691      F2697   1.383       .  S
C2694      F2698   1.383       .  S
C2694      F2699   1.382       .  S
C2694      F2700   1.385       .  S
C2701      C2702   1.406       .  A
C2701      C2706   1.415       .  A
C2701      H2708   1.083       .  S
C2702      C2703   1.416       .  A
C2703      C2704   1.406       .  A
C2703      C2710   1.519       .  S
C2704      C2705   1.403       .  A
C2704      H2709   1.083       .  S
C2705      C2706   1.417       .  A
C2706      C2707   1.517       .  S
C2707      F2711   1.384       .  S
C2707      F2712   1.382       .  S
C2707      F2713   1.384       .  S
C2710      F3710   1.379       .  S
C2710      F2715   1.383       .  S
C2710      F3712   1.385       .  S
F2714      C3706   1.381       .  S
F2716      C3706   1.384       .  S
C2717      C2718   1.395       .  A
C2717      C2722   1.408       .  A
C2717      H2724   1.084       .  S
C2718      C2719   1.417       .  A
C2719      C2720   1.403       .  A
C2719      C2726   1.515       .  S
C2720      C2721   1.406       .  A
C2720      H2725   1.074       .  S
C2721      C2722   1.431       .  A
C2722      C2723   1.515       .  S
C2723      F2727   1.384       .  S
C2723      F2728   1.379       .  S
C2723      F2729   1.382       .  S
C2726      F2730   1.383       .  S
C2726      F2731   1.383       .  S
C2726      F2732   1.384       .  S
C2733      C2734   1.411       .  A
C2733      C2738   1.397       .  A
C2733      H2740   1.081       .  S
C2734      C2735   1.428       .  A
C2735      C2736   1.408       .  A
C2735      C2742   1.517       .  S
C2736      C2737   1.396       .  A
C2736      H2741   1.083       .  S
C2737      C2738   1.408       .  A
C2738      C2739   1.522       .  S
C2739      F2743   1.385       .  S
C2739      F2744   1.382       .  S
C2739      F2745   1.383       .  S
C2742      F2746   1.383       .  S
C2742      F2747   1.382       .  S
C2742      F2748   1.385       .  S
C2749      C2750   1.412       .  A
C2749      C2754   1.400       .  A
C2749      H2756   1.080       .  S
C2750      C2751   1.427       .  A
C2751      C2752   1.415       .  A
C2751      C2758   1.514       .  S
C2752      C2753   1.402       .  A
C2752      H2757   1.083       .  S
C2753      C2754   1.408       .  A
C2754      C2755   1.521       .  S
C2755      F2759   1.385       .  S
C2755      F2760   1.382       .  S
C2755      F2761   1.382       .  S
C2758      F2762   1.381       .  S
C2758      F2763   1.382       .  S
C2758      F2764   1.385       .  S
C2765      C2766   1.400       .  A
C2765      C2770   1.402       .  A
C2765      H2772   1.085       .  S
C2766      C2767   1.418       .  A
C2767      C2768   1.408       .  A
C2767      C2774   1.516       .  S
C2768      C2769   1.401       .  A
C2768      H2773   1.083       .  S
C2769      C2770   1.417       .  A
C2770      C2771   1.517       .  S
C2771      F2775   1.384       .  S
C2771      F2776   1.379   1_655  S
C2774      F2778   1.380       .  S
C2774      F2779   1.384       .  S
C2774      F2780   1.384       .  S
C2781      C2782   1.405       .  A
C2781      C2786   1.400       .  A
C2781      H2788   1.083       .  S
C2782      C2783   1.421       .  A
C2783      C2784   1.404       .  A
C2783      C2790   1.519       .  S
C2784      C2785   1.399       .  A
C2784      H2789   1.085       .  S
C2785      C2786   1.409       .  A
C2786      C2787   1.518       .  S
C2787      F2792   1.384       .  S
C2790      F2794   1.381       .  S
C2790      F2795   1.383       .  S
C2790      F2796   1.384       .  S
C2797      C2798   1.412       .  A
C2797      C2802   1.404       .  A
C2797      H2804   1.077       .  S
C2798      C2799   1.425       .  A
C2799      C2800   1.412       .  A
C2799      C2806   1.516       .  S
C2800      C2801   1.400       .  A
C2800      H2805   1.083       .  S
C2801      C2802   1.411       .  A
C2802      C2803   1.523       .  S
C2803      F2807   1.385       .  S
C2803      F2808   1.382       .  S
C2803      F2809   1.379       .  S
C2806      F2810   1.382       .  S
C2806      F2811   1.383       .  S
C2806      F2812   1.384       .  S
C2813      C2814   1.407       .  A
C2813      C2818   1.418       .  A
C2813      H2820   1.083       .  S
C2814      C2815   1.424       .  A
C2815      C2816   1.402       .  A
C2815      C2822   1.520       .  S
C2816      C2817   1.402       .  A
C2816      H2821   1.085       .  S
C2817      C2818   1.422       .  A
C2818      C2819   1.519       .  S
C2819      F2823   1.379       .  S
C2819      F2824   1.383       .  S
C2819      F2825   1.384       .  S
C2822      F2826   1.383       .  S
C2822      F2827   1.382       .  S
C2822      F2828   1.386       .  S
C2829      C2830   1.403       .  A
C2829      C2834   1.403       .  A
C2829      H2836   1.084       .  S
C2830      C2831   1.417       .  A
C2831      C2832   1.409       .  A
C2831      C2838   1.518       .  S
C2832      C2833   1.403       .  A
C2832      H2837   1.083       .  S
C2833      C2834   1.413       .  A
C2834      C2835   1.516       .  S
C2835      F2839   1.384       .  S
C2835      F2840   1.381       .  S
C2835      F2841   1.381       .  S
C2838      F2842   1.384       .  S
C2838      F2843   1.382       .  S
C2838      F2844   1.384       .  S
C2845      C2846   1.400       .  A
C2845      C2850   1.400       .  A
C2845      H2852   1.085       .  S
C2846      C2847   1.416       .  A
C2847      C2848   1.409       .  A
C2847      C2854   1.517       .  S
C2848      C2849   1.402       .  A
C2848      H2853   1.083       .  S
C2849      C2850   1.418       .  A
C2850      C2851   1.519       .  S
C2851      F2855   1.384       .  S
C2851      F2856   1.383       .  S
C2851      F2857   1.382       .  S
C2854      F2858   1.382       .  S
C2854      F2859   1.383       .  S
C2854      F2860   1.384       .  S
C2861      C2862   1.408       .  A
C2861      C2866   1.421       .  A
C2861      H2868   1.083       .  S
C2862      C2863   1.414       .  A
C2863      C2864   1.404       .  A
C2863      C2870   1.517       .  S
C2864      C2865   1.404       .  A
C2864      H2869   1.083       .  S
C2865      C2866   1.423       .  A
C2866      C2867   1.520       .  S
C2867      F2871   1.384       .  S
C2867      F2872   1.383       .  S
C2867      F2873   1.380       .  S
C2870      F2874   1.384       .  S
C2870      F2875   1.384       .  S
C2877      C2878   1.404       .  A
C2877      C2882   1.412       .  A
C2877      H2884   1.083       .  S
C2878      C2879   1.415       .  A
C2879      C2880   1.401       .  A
C2879      C2886   1.523       .  S
C2880      C2881   1.404       .  A
C2880      H2885   1.084       .  S
C2881      C2882   1.419       .  A
C2882      C2883   1.515       .  S
C2883      F2887   1.385       .  S
C2883      F2888   1.381       .  S
C2883      F2889   1.383       .  S
C2886      F2890   1.381       .  S
C2886      F2891   1.381       .  S
C2893      C2894   1.401       .  A
C2893      C2898   1.401       .  A
C2893      H2900   1.084       .  S
C2894      C2895   1.416       .  A
C2895      C2896   1.405       .  A
C2895      C2902   1.515       .  S
C2896      C2897   1.401       .  A
C2896      H2901   1.083       .  S
C2897      C2898   1.413       .  A
C2898      C2899   1.519       .  S
C2899      F2903   1.385       .  S
C2899      F2904   1.381       .  S
C2899      F2905   1.382       .  S
C2902      F2906   1.383       .  S
C2902      F2907   1.382       .  S
C2902      F2908   1.385       .  S
C2909      C2910   1.407       .  A
C2909      C2914   1.405       .  A
C2909      H2916   1.083       .  S
C2910      C2911   1.421       .  A
C2911      C2912   1.402       .  A
C2911      C2918   1.516       .  S
C2912      C2913   1.397       .  A
C2912      H2917   1.085       .  S
C2913      C2914   1.411       .  A
C2914      C2915   1.519       .  S
C2915      F2919   1.384       .  S
C2915      F2920   1.383       .  S
C2915      F2921   1.378       .  S
C2918      F2922   1.382       .  S
C2918      F2923   1.383       .  S
C2918      F2924   1.384       .  S
C2925      C2926   1.407       .  A
C2925      C2930   1.417       .  A
C2925      H2932   1.083       .  S
C2926      C2927   1.418       .  A
C2927      C2928   1.410       .  A
C2927      C2934   1.521       .  S
C2928      C2929   1.404       .  A
C2928      H2933   1.082       .  S
C2929      C2930   1.419       .  A
C2930      C2931   1.517       .  S
C2931      F2935   1.385       .  S
C2931      F2936   1.381       .  S
C2931      F2937   1.383       .  S
C2934      F2938   1.382       .  S
C2934      F2939   1.382       .  S
C2934      F2940   1.384   1_655  S
C2941      C2942   1.401       .  A
C2941      C2946   1.404       .  A
C2941      H2948   1.084       .  S
C2942      C2943   1.416       .  A
C2943      C2944   1.410       .  A
C2943      C2950   1.516       .  S
C2944      C2945   1.403       .  A
C2944      H2949   1.083       .  S
C2945      C2946   1.417       .  A
C2946      C2947   1.520       .  S
C2947      F2952   1.382       .  S
C2947      F2953   1.382       .  S
C2950      F2954   1.383       .  S
C2950      F2955   1.383       .  S
C2950      F2956   1.385       .  S
C2957      C2958   1.399       .  A
C2957      C2962   1.409       .  A
C2957      H2964   1.083       .  S
C2958      C2959   1.411       .  A
C2959      C2960   1.403       .  A
C2959      C2966   1.520       .  S
C2960      C2961   1.408       .  A
C2960      H2965   1.083       .  S
C2961      C2962   1.424       .  A
C2962      C2963   1.518       .  S
C2963      F2967   1.386       .  S
C2963      F2968   1.383       .  S
C2963      F2969   1.381       .  S
C2966      F2970   1.381       .  S
C2966      F2971   1.382       .  S
C2966      F2972   1.383       .  S
C2973      C2974   1.401       .  A
C2973      C2978   1.409       .  A
C2973      H2980   1.083       .  S
C2974      C2975   1.412       .  A
C2975      C2976   1.404       .  A
C2975      C2982   1.521       .  S
C2976      C2977   1.408       .  A
C2976      H2981   1.078       .  S
C2977      C2978   1.421       .  A
C2978      C2979   1.518       .  S
C2979      F2983   1.384       .  S
C2979      F2984   1.381       .  S
C2979      F2985   1.383       .  S
C2982      F2986   1.382       .  S
C2982      F2987   1.382       .  S
C2982      F2988   1.384       .  S
N2989      C2994   1.355       .  A
N2989      C2993   1.352       .  A
N2989      H3021   1.039       .  S
N2990      C2997   1.357       .  A
N2990      C2998   1.357       .  A
N2991      C2996   1.356       .  A
N2991      C2995   1.355       .  A
N2991      H3022   1.037       .  S
N2992      C2999   1.352       .  A
N2992      C3000   1.351       .  A
C2993      C3001   1.387       .  A
C2993      C3009   1.414       .  A
C2994      C3010   1.418       .  A
C2994      C3002   1.387       .  A
C2995      C3003   1.388       .  A
C2995      C3012   1.419       .  A
C2996      C3011   1.420       .  A
C2996      C3004   1.387       .  A
C2997      C3009   1.425       .  A
C2997      C3005   1.386       .  A
C2998      C3012   1.426       .  A
C2998      C3006   1.387       .  A
C2999      C3007   1.386       .  A
C2999      C3010   1.416       .  A
C3000      C3008   1.386       .  A
C3000      C3011   1.415       .  A
C3001      C3002   1.374       .  A
C3001      H3013   1.082       .  S
C3002      H3014   1.082       .  S
C3003      C3004   1.370       .  A
C3003      H3015   1.081       .  S
C3004      H3016   1.082       .  S
C3005      C3006   1.382       .  A
C3005      H3017   1.082       .  S
C3006      H3018   1.082       .  S
C3007      C3008   1.377       .  A
C3007      H3019   1.082       .  S
C3008      H3020   1.082       .  S
C3009      C3941   1.502       .  S
C3010      C3970   1.497       .  S
C3011      C3954   1.494       .  S
C3012      C3922   1.504       .  S
N3023      C3028   1.351       .  A
N3023      C3027   1.352       .  A
N3023      H3055   1.041       .  S
N3024      C3031   1.345       .  A
N3024      C3032   1.344       .  A
N3025      C3030   1.350       .  A
N3025      C3029   1.355       .  A
N3025      H3056   1.041       .  S
N3026      C3033   1.356       .  A
N3026      C3034   1.354       .  A
C3027      C3035   1.389       .  A
C3027      C3043   1.416       .  A
C3028      C3044   1.410       .  A
C3028      C3036   1.385       .  A
C3029      C3037   1.386       .  A
C3029      C3046   1.417       .  A
C3030      C3045   1.412       .  A
C3030      C3038   1.388       .  A
C3031      C3043   1.403       .  A
C3031      C3039   1.385       .  A
C3032      C3046   1.406       .  A
C3032      C3040   1.386       .  A
C3033      C3041   1.385       .  A
C3033      C3044   1.421       .  A
C3034      C3042   1.387       .  A
C3034      C3045   1.422       .  A
C3035      C3036   1.376       .  A
C3035      H3047   1.082       .  S
C3036      H3048   1.082       .  S
C3037      C3038   1.375       .  A
C3037      H3049   1.082       .  S
C3038      H3050   1.081       .  S
C3039      C3040   1.378       .  A
C3039      H3051   1.082       .  S
C3040      H3052   1.082       .  S
C3041      C3042   1.382       .  A
C3041      H3053   1.082       .  S
C3042      H3054   1.082       .  S
C3043      C3893   1.483       .  S
C3044      C3861   1.503       .  S
C3045      C3874   1.494       .  S
C3046      C3906   1.490       .  S
C3057      N3075   1.346       .  A
C3057      C3094   1.454       .  S
C3057      C3909   1.465       .  S
N3058      N3075   1.325       .  A
N3058      N3080   1.321       .  A
C3059      N3084   1.345       .  A
C3059      H3104   1.076       .  S
C3059      C3097   1.471       .  S
H3060      C3101   1.079       .  S
C3061      N3085   1.335       .  A
C3061      H3090   1.079       .  S
C3061      C3065   1.457       .  S
Co3062     N3102   2.091       .  S
Co3062     N3078   2.078       .  S
Co3062    Cl3106   2.437       .  S
N3063      C3101   1.350       .  A
N3063      N3070   1.321       .  A
Co3064     N3084   2.099       .  S
Co3064     N3071   2.097       .  S
Co3064    Cl3106   2.470       .  S
C3065      N3103   1.356       .  A
C3065      C3810   1.489       .  S
N3066      N3073   1.319       .  A
N3066      N3096   1.319       .  A
N3067      N3085   1.319       .  A
N3067      N3103   1.330       .  A
N3068      C3097   1.351       .  A
N3068      N3078   1.322       .  A
H3069      C3094   1.081       .  S
N3070      N3091   1.322       .  A
N3071      N3089   1.317       .  A
N3071      N3076   1.327       .  A
C3072      N3076   1.356       .  A
C3072      C3100   1.463       .  S
C3072      C3794   1.499       .  S
N3073      C3088   1.342       .  A
C3074      N3102   1.339       .  A
C3074      H3108   1.081       .  S
C3074      C3077   1.457       .  S
C3077      N3098   1.350       .  A
C3077      C3890   1.478       .  S
N3078      N3084   1.318       .  A
N3079      C3105   1.342       .  A
N3079      N3081   1.317       .  A
N3079     Co3095   2.074       .  S
N3080      C3094   1.338       .  A
N3081      N3109   1.319       .  A
N3081     Co3099   2.069       .  S
H3082      C3105   1.080       .  S
H3083      C3100   1.079       .  S
N3086      N3098   1.328       .  A
N3086      N3102   1.322       .  A
N3086     Co3095   2.095       .  S
C3087      N3091   1.348       .  A
C3087      C3101   1.476       .  S
C3087      C3973   1.496       .  S
C3088      H3092   1.081       .  S
C3088      C3107   1.456       .  S
N3089      C3100   1.334       .  A
N3089     Co3099   2.074       .  S
C3093      N3109   1.344       .  A
C3093      C3105   1.459       .  S
C3093      C3826   1.467       .  S
Co3095    Cl3106   2.472       .  S
N3096      C3107   1.344       .  A
C3097      C3957   1.495       .  S
Co3099    Cl3106   2.426       .  S
C3107      C3845   1.462       .  S
N3110      C3115   1.353       .  A
N3110      C3114   1.352       .  A
N3110      H3142   1.038       .  S
N3111      C3118   1.351       .  A
N3111      C3119   1.350       .  A
N3112      C3117   1.352       .  A
N3112      C3116   1.354       .  A
N3112      H3143   1.038       .  S
N3113      C3120   1.351       .  A
N3113      C3121   1.349       .  A
C3114      C3122   1.388       .  A
C3114      C3130   1.415       .  A
C3115      C3131   1.416       .  A
C3115      C3123   1.387       .  A
C3116      C3124   1.388       .  A
C3116      C3133   1.419       .  A
C3117      C3132   1.412       .  A
C3117      C3125   1.386       .  A
C3118      C3130   1.415       .  A
C3118      C3126   1.386       .  A
C3119      C3133   1.416       .  A
C3119      C3127   1.387       .  A
C3120      C3128   1.386       .  A
C3120      C3131   1.412       .  A
C3121      C3129   1.385       .  A
C3121      C3132   1.409       .  A
C3122      C3123   1.379       .  A
C3122      H3134   1.083       .  S
C3123      H3135   1.082       .  S
C3124      C3125   1.379       .  A
C3124      H3136   1.082       .  S
C3125      H3137   1.082       .  S
C3126      C3127   1.378       .  A
C3126      H3138   1.082       .  S
C3127      H3139   1.082       .  S
C3128      C3129   1.378       .  A
C3128      H3140   1.082       .  S
C3129      H3141   1.082       .  S
C3130      C3778   1.496       .  S
C3131      C3813   1.495       .  S
C3132      C3797   1.486       .  S
C3133      C3762   1.498       .  S
N3144      C3149   1.350       .  A
N3144      C3148   1.353       .  A
N3144      H3176   1.040       .  S
N3145      C3152   1.346       .  A
N3145      C3153   1.346       .  A
N3146      C3151   1.352       .  A
N3146      C3150   1.351       .  A
N3146      H3177   1.040       .  S
N3147      C3154   1.349       .  A
N3147      C3155   1.350       .  A
C3148      C3156   1.388       .  A
C3148      C3164   1.415       .  A
C3149      C3165   1.410       .  A
C3149      C3157   1.386       .  A
C3150      C3158   1.387       .  A
C3150      C3167   1.414       .  A
C3151      C3166   1.412       .  A
C3151      C3159   1.386       .  A
C3152      C3164   1.404       .  A
C3152      C3160   1.385       .  A
C3153      C3167   1.407       .  A
C3153      C3161   1.387       .  A
C3154      C3162   1.386       .  A
C3154      C3165   1.409       .  A
C3155      C3163   1.386       .  A
C3155      C3166   1.410       .  A
C3156      C3157   1.376       .  A
C3156      H3168   1.082       .  S
C3157      H3169   1.082       .  S
C3158      C3159   1.378       .  A
C3158      H3170   1.082       .  S
C3159      H3171   1.082       .  S
C3160      C3161   1.374       .  A
C3160      H3172   1.082       .  S
C3161      H3173   1.082       .  S
C3162      C3163   1.374       .  A
C3162      H3174   1.082       .  S
C3163      H3175   1.082       .  S
C3164      C3829   1.482       .  S
C3165      C3733   1.482       .  S
C3166      C3749   1.485       .  S
C3167      C3842   1.480       .  S
C3178      N3196   1.340       .  A
C3178      C3215   1.485       .  S
C3178      C3925   1.495       .  S
N3179      N3196   1.318       .  A
N3179      N3201   1.319       .  A
C3180      N3205   1.350       .  A
C3180      H3225   1.078       .  S
C3180      C3218   1.478       .  S
H3181      C3222   1.082       .  S
C3182      N3206   1.352       .  A
C3182      H3211   1.079       .  S
C3182      C3186   1.477       .  S
Co3183     N3191   2.122   1_545  S
Co3183     N3199   2.083   1_545  S
N3184      C3222   1.335       .  A
N3184      N3191   1.323       .  A
Co3185     N3188   2.068       .  S
Co3185     N3192   2.116       .  S
Co3185    Cl3227   2.457   1_565  S
C3186      N3224   1.341       .  A
C3186      C3877   1.486       .  S
N3187      N3194   1.321       .  A
N3187      N3217   1.335       .  A
N3188      N3206   1.320       .  A
N3188      N3224   1.315       .  A
N3189      C3218   1.346       .  A
N3189      N3199   1.322       .  A
H3190      C3215   1.080       .  S
N3191      N3212   1.334       .  A
N3192      N3210   1.322       .  A
N3192      N3197   1.334       .  A
C3193      N3197   1.363       .  A
C3193      C3221   1.447       .  S
C3193      C3682   1.486       .  S
N3194      C3209   1.334       .  A
N3194     Co3216   2.073       .  S
C3195      N3223   1.332       .  A
C3195      H3229   1.082       .  S
C3195      C3198   1.445       .  S
C3198      N3219   1.357       .  A
C3198      C3698   1.472       .  S
N3199      N3205   1.321       .  A
N3200      C3226   1.350       .  A
N3200      N3202   1.321       .  A
N3200     Co3216   2.104       .  S
N3201      C3215   1.355       .  A
N3202      N3230   1.315       .  A
H3203      C3226   1.081       .  S
H3204      C3221   1.081       .  S
N3206     Co3220   2.102   1_565  S
N3207      N3219   1.331       .  A
N3207      N3223   1.320       .  A
C3208      N3212   1.362       .  A
C3208      C3222   1.447       .  S
C3208      C3938   1.489       .  S
C3209      H3213   1.081       .  S
C3209      C3228   1.446       .  S
N3210      C3221   1.331       .  A
N3210     Co3220   2.074   1_565  S
C3214      N3230   1.338       .  A
C3214      C3226   1.472       .  S
C3214      C3714   1.473       .  S
N3217      C3228   1.362       .  A
C3218      C3669   1.497       .  S
Co3220    Cl3227   2.451       .  S
C3228      C3858   1.489       .  S
C3231      N3249   1.352       .  A
C3231      C3268   1.452       .  S
C3231      C3618   1.473       .  S
N3232      N3249   1.329       .  A
N3232      N3254   1.323       .  A
C3233      N3258   1.345       .  A
C3233      H3278   1.081       .  S
C3233      C3271   1.461       .  S
H3234      C3275   1.079       .  S
C3235      N3259   1.328       .  A
C3235      H3264   1.075       .  S
C3235      C3239   1.455       .  S
Co3236     N3276   2.058       .  S
Co3236     N3252   2.086       .  S
Co3236    Cl3280   2.428   1_556  S
N3237      C3275   1.342       .  A
N3237      N3244   1.317       .  A
Co3238     N3258   2.094   1_554  S
Co3238     N3245   2.097       .  S
Co3238    Cl3280   2.476       .  S
C3239      N3277   1.350       .  A
C3239      C3554   1.476       .  S
N3240      N3247   1.319       .  A
N3240      N3270   1.322       .  A
N3241      N3259   1.317       .  A
N3241      N3277   1.326       .  A
N3242      C3271   1.347       .  A
N3242      N3252   1.322       .  A
H3243      C3268   1.082       .  S
N3244      N3265   1.319       .  A
N3245      N3263   1.318       .  A
N3245      N3250   1.331       .  A
C3246      N3250   1.355       .  A
C3246      C3274   1.451       .  S
C3246      C3538   1.480       .  S
N3247      C3262   1.348       .  A
C3248      N3276   1.328       .  A
C3248      H3282   1.081       .  S
C3248      C3251   1.454       .  S
C3251      N3272   1.361       .  A
C3251      C3602   1.497       .  S
N3252      N3258   1.322       .  A
N3253      C3279   1.345       .  A
N3253      N3255   1.321       .  A
N3253     Co3269   2.105   1_554  S
N3254      C3268   1.335       .  A
N3255      N3283   1.321       .  A
N3255     Co3273   2.076       .  S
H3256      C3279   1.081       .  S
H3257      C3274   1.075       .  S
N3260      N3272   1.334       .  A
N3260      N3276   1.318       .  A
N3260     Co3269   2.116       .  S
C3261      N3265   1.347       .  A
C3261      C3275   1.461       .  S
C3261      C3650   1.473       .  S
C3262      H3266   1.081       .  S
C3262      C3281   1.474       .  S
N3263      C3274   1.331       .  A
N3263     Co3273   2.064       .  S
C3267      N3283   1.346       .  A
C3267      C3279   1.472       .  S
C3267      C3570   1.488       .  S
Co3269    Cl3280   2.476   1_556  S
N3270      C3281   1.348       .  A
C3271      C3637   1.473       .  S
Co3273    Cl3280   2.429       .  S
C3281      C3586   1.500       .  S
N3284      C3289   1.352       .  A
N3284      C3288   1.351       .  A
N3284      H3316   1.045       .  S
N3285      C3292   1.351       .  A
N3285      C3293   1.343       .  A
N3286      C3291   1.357       .  A
N3286      C3290   1.355       .  A
N3286      H3317   1.043       .  S
N3287      C3294   1.349       .  A
N3287      C3295   1.348       .  A
C3288      C3296   1.388       .  A
C3288      C3304   1.406       .  A
C3289      C3305   1.401       .  A
C3289      C3297   1.385       .  A
C3290      C3298   1.388       .  A
C3290      C3307   1.421       .  A
C3291      C3306   1.418       .  A
C3291      C3299   1.386       .  A
C3292      C3304   1.418       .  A
C3292      C3300   1.384       .  A
C3293      C3307   1.417       .  A
C3293      C3301   1.389       .  A
C3294      C3302   1.385       .  A
C3294      C3305   1.410       .  A
C3295      C3303   1.388       .  A
C3295      C3306   1.413       .  A
C3296      C3297   1.368       .  A
C3296      H3308   1.083       .  S
C3297      H3309   1.082       .  S
C3298      C3299   1.377       .  A
C3298      H3310   1.082       .  S
C3299      H3311   1.082       .  S
C3300      C3301   1.388       .  A
C3300      H3312   1.082       .  S
C3301      H3313   1.082       .  S
C3302      C3303   1.379       .  A
C3302      H3314   1.082       .  S
C3303      H3315   1.082       .  S
C3304      C3506   1.497       .  S
C3305      C3605   1.486       .  S
C3306      C3621   1.502       .  S
C3307      C3522   1.496       .  S
N3318      C3323   1.352       .  A
N3318      C3322   1.350       .  A
N3318      H3350   1.041       .  S
N3319      C3326   1.351       .  A
N3319      C3327   1.351       .  A
N3320      C3325   1.353       .  A
N3320      C3324   1.352       .  A
N3320      H3351   1.039       .  S
N3321      C3328   1.348       .  A
N3321      C3329   1.345       .  A
C3322      C3330   1.387       .  A
C3322      C3338   1.412       .  A
C3323      C3339   1.412       .  A
C3323      C3331   1.387       .  A
C3324      C3332   1.386       .  A
C3324      C3341   1.412       .  A
C3325      C3340   1.416       .  A
C3325      C3333   1.389       .  A
C3326      C3338   1.413       .  A
C3326      C3334   1.385       .  A
C3327      C3341   1.412       .  A
C3327      C3335   1.385       .  A
C3328      C3336   1.386       .  A
C3328      C3339   1.410       .  A
C3329      C3337   1.387       .  A
C3329      C3340   1.407       .  A
C3330      C3331   1.377       .  A
C3330      H3342   1.082       .  S
C3331      H3343   1.082       .  S
C3332      C3333   1.376       .  A
C3332      H3344   1.082       .  S
C3333      H3345   1.082       .  S
C3334      C3335   1.379       .  A
C3334      H3346   1.082       .  S
C3335      H3347   1.082       .  S
C3336      C3337   1.377       .  A
C3336      H3348   1.082       .  S
C3337      H3349   1.083       .  S
C3338      C3474   1.492       .  S
C3339      C3634   1.490       .  S
C3340      C3653   1.480       .  S
C3341      C3490   1.490       .  S
C3352      N3370   1.355       .  A
C3352      C3389   1.453       .  S
C3352      C3781   1.483       .  S
N3353      N3370   1.331       .  A
N3353      N3375   1.319       .  A
N3353     Co3390   2.104       .  S
C3354      N3379   1.340       .  A
C3354      H3399   1.075       .  S
C3354      C3392   1.475       .  S
H3355      C3396   1.077       .  S
C3356      N3380   1.350       .  A
C3356      H3385   1.082       .  S
C3356      C3360   1.471       .  S
Co3357     N3365   2.070       .  S
Co3357    Cl3401   2.445   1_565  S
N3358      C3396   1.347       .  A
N3358      N3365   1.317       .  A
N3358     Co3359   2.100   1_565  S
Co3359     N3362   2.071   1_545  S
Co3359    Cl3401   2.456       .  S
C3360      N3398   1.346       .  A
C3360      C3509   1.487       .  S
N3361      N3368   1.321       .  A
N3361      N3391   1.324       .  A
N3362      N3380   1.322       .  A
N3362      N3398   1.323       .  A
N3363      C3392   1.350       .  A
N3363      N3373   1.318       .  A
H3364      C3389   1.081       .  S
N3365      N3386   1.316       .  A
N3366      N3384   1.318       .  A
N3366      N3371   1.323       .  A
C3367      N3371   1.352       .  A
C3367      C3395   1.470       .  S
C3367      C3477   1.492       .  S
N3368      C3383   1.338       .  A
N3368     Co3390   2.083       .  S
C3369      N3397   1.337       .  A
C3369      H3403   1.082       .  S
C3369      C3372   1.454       .  S
C3372      N3393   1.352       .  A
C3372      C3765   1.477       .  S
N3373      N3379   1.313       .  A
N3374      C3400   1.339       .  A
N3374      N3376   1.321       .  A
N3375      C3389   1.338       .  A
N3376      N3404   1.329       .  A
H3377      C3400   1.082       .  S
H3378      C3395   1.077       .  S
N3380     Co3394   2.122   1_565  S
N3381      N3393   1.329       .  A
N3381      N3397   1.320       .  A
C3382      N3386   1.349       .  A
C3382      C3396   1.480       .  S
C3382      C3746   1.503       .  S
C3383      H3387   1.082       .  S
C3383      C3402   1.464       .  S
N3384      C3395   1.339       .  A
C3388      N3404   1.357       .  A
C3388      C3400   1.455       .  S
C3388      C3493   1.488       .  S
N3391      C3402   1.353       .  A
C3392      C3730   1.498       .  S
Co3394    Cl3401   2.448       .  S
C3402      C3525   1.492       .  S
N3405      C3410   1.354       .  A
N3405      C3409   1.357       .  A
N3405      H3437   1.042       .  S
N3406      C3413   1.353       .  A
N3406      C3414   1.350       .  A
N3407      C3412   1.356       .  A
N3407      C3411   1.350       .  A
N3407      H3438   1.041       .  S
N3408      C3415   1.347       .  A
N3408      C3416   1.351       .  A
C3409      C3417   1.385       .  A
C3409      C3425   1.418       .  A
C3410      C3426   1.418       .  A
C3410      C3418   1.388       .  A
C3411      C3419   1.385       .  A
C3411      C3428   1.410       .  A
C3412      C3427   1.419       .  A
C3412      C3420   1.387       .  A
C3413      C3425   1.413       .  A
C3413      C3421   1.385       .  A
C3414      C3428   1.415       .  A
C3414      C3422   1.388       .  A
C3415      C3423   1.385       .  A
C3415      C3426   1.409       .  A
C3416      C3424   1.387       .  A
C3416      C3427   1.415       .  A
C3417      C3418   1.377       .  A
C3417      H3429   1.083       .  S
C3418      H3430   1.082       .  S
C3419      C3420   1.374       .  A
C3419      H3431   1.081       .  S
C3420      H3432   1.081       .  S
C3421      C3422   1.368       .  A
C3421      H3433   1.082       .  S
C3422      H3434   1.082       .  S
C3423      C3424   1.375       .  A
C3423      H3435   1.083       .  S
C3424      H3436   1.082       .  S
C3425      C3701   1.500       .  S
C3426      C3717   1.522       .  S
C3427      C3541   1.505       .  S
C3428      C3557   1.480       .  S
N3439      C3444   1.353       .  A
N3439      C3443   1.355       .  A
N3439      H3471   1.038       .  S
N3440      C3447   1.353       .  A
N3440      C3448   1.353       .  A
N3441      C3446   1.356       .  A
N3441      C3445   1.356       .  A
N3441      H3472   1.033       .  S
N3442      C3449   1.352       .  A
N3442      C3450   1.353       .  A
C3443      C3451   1.387       .  A
C3443      C3459   1.416       .  A
C3444      C3460   1.415       .  A
C3444      C3452   1.388       .  A
C3445      C3453   1.387       .  A
C3445      C3462   1.424       .  A
C3446      C3461   1.424       .  A
C3446      C3454   1.387       .  A
C3447      C3459   1.414       .  A
C3447      C3455   1.385       .  A
C3448      C3462   1.419       .  A
C3448      C3456   1.388       .  A
C3449      C3457   1.386       .  A
C3449      C3460   1.415       .  A
C3450      C3458   1.387       .  A
C3450      C3461   1.418       .  A
C3451      C3452   1.375       .  A
C3451      H3463   1.082       .  S
C3452      H3464   1.082       .  S
C3453      C3454   1.381       .  A
C3453      H3465   1.082       .  S
C3454      H3466   1.082       .  S
C3455      C3456   1.370       .  A
C3455      H3467   1.082       .  S
C3456      H3468   1.082       .  S
C3457      C3458   1.369       .  A
C3457      H3469   1.082       .  S
C3458      H3470   1.082       .  S
C3459      C3589   1.494       .  S
C3460      C3573   1.487       .  S
C3461      C3685   1.496       .  S
C3462      C3666   1.497       .  S
C3473      C3474   1.401       .  A
C3473      C3478   1.404       .  A
C3473      H3480   1.083       .  S
C3474      C3475   1.416       .  A
C3475      C3476   1.410       .  A
C3475      C3482   1.519       .  S
C3476      C3477   1.409       .  A
C3476      H3481   1.084       .  S
C3477      C3478   1.425       .  A
C3478      C3479   1.519       .  S
C3479      F3483   1.383       .  S
C3479      F3484   1.382       .  S
C3479      F3485   1.380       .  S
C3482      F3486   1.381       .  S
C3482      F3487   1.383       .  S
C3482      F3488   1.385       .  S
C3489      C3490   1.400       .  A
C3489      C3494   1.407       .  A
C3489      H3496   1.083       .  S
C3490      C3491   1.415       .  A
C3491      C3492   1.410       .  A
C3491      C3498   1.517       .  S
C3492      C3493   1.404       .  A
C3492      H3497   1.083       .  S
C3493      C3494   1.420       .  A
C3494      C3495   1.513       .  S
C3495      F3499   1.386       .  S
C3495      F3500   1.382       .  S
C3495      F3501   1.382       .  S
C3498      F3502   1.383       .  S
C3498      F3503   1.382       .  S
C3498      F3504   1.384       .  S
C3505      C3506   1.408       .  A
C3505      C3510   1.411       .  A
C3505      H3512   1.083       .  S
C3506      C3507   1.422       .  A
C3507      C3508   1.413       .  A
C3507      C3514   1.520       .  S
C3508      C3509   1.405       .  A
C3508      H3513   1.081       .  S
C3509      C3510   1.412       .  A
C3510      C3511   1.517       .  S
C3511      F3515   1.384       .  S
C3511      F3516   1.384       .  S
C3511      F3517   1.383       .  S
C3514      F3518   1.383       .  S
C3514      F3519   1.381       .  S
C3514      F3520   1.383       .  S
C3521      C3522   1.405       .  A
C3521      C3526   1.406       .  A
C3521      H3528   1.083       .  S
C3522      C3523   1.418       .  A
C3523      C3524   1.408       .  A
C3523      C3530   1.521       .  S
C3524      C3525   1.409       .  A
C3524      H3529   1.084       .  S
C3525      C3526   1.423       .  A
C3526      C3527   1.522       .  S
C3527      F3531   1.385       .  S
C3527      F3532   1.376       .  S
C3527      F3533   1.383       .  S
C3530      F3534   1.382       .  S
C3530      F3535   1.382       .  S
C3530      F3536   1.384       .  S
C3537      C3538   1.402       .  A
C3537      C3542   1.412       .  A
C3537      H3544   1.084       .  S
C3538      C3539   1.414       .  A
C3539      C3540   1.398       .  A
C3539      C3546   1.518       .  S
C3540      C3541   1.406       .  A
C3540      H3545   1.083       .  S
C3541      C3542   1.426       .  A
C3542      C3543   1.516       .  S
C3543      F3547   1.383       .  S
C3543      F3548   1.382       .  S
C3543      F3549   1.383       .  S
C3546      F3550   1.384       .  S
C3546      F3551   1.381       .  S
C3546      F3552   1.385       .  S
C3553      C3554   1.405       .  A
C3553      C3558   1.399       .  A
C3553      H3560   1.082       .  S
C3554      C3555   1.415       .  A
C3555      C3556   1.406       .  A
C3555      C3562   1.519       .  S
C3556      C3557   1.405       .  A
C3556      H3561   1.083       .  S
C3557      C3558   1.413       .  A
C3558      C3559   1.521       .  S
C3559      F3563   1.381       .  S
C3559      F3564   1.380       .  S
C3559      F3565   1.385       .  S
C3562      F3566   1.383       .  S
C3562      F3567   1.383       .  S
C3562      F3568   1.385       .  S
C3569      C3570   1.406       .  A
C3569      C3574   1.408       .  A
C3569      H3576   1.082       .  S
C3570      C3571   1.425       .  A
C3571      C3572   1.403       .  A
C3571      C3578   1.517       .  S
C3572      C3573   1.397       .  A
C3572      H3577   1.084       .  S
C3573      C3574   1.413       .  A
C3574      C3575   1.516       .  S
C3575      F3579   1.384       .  S
C3575      F3580   1.383       .  S
C3575      F3581   1.382       .  S
C3578      F3582   1.384       .  S
C3578      F3583   1.380       .  S
C3578      F3584   1.386       .  S
C3585      C3586   1.410       .  A
C3585      C3590   1.412       .  A
C3585      H3592   1.081       .  S
C3586      C3587   1.428       .  A
C3587      C3588   1.404       .  A
C3587      C3594   1.519       .  S
C3588      C3589   1.396       .  A
C3588      H3593   1.084       .  S
C3589      C3590   1.413       .  A
C3590      C3591   1.516       .  S
C3591      F3595   1.384       .  S
C3591      F3596   1.384       .  S
C3591      F3597   1.381       .  S
C3594      F3598   1.384       .  S
C3594      F3599   1.377       .  S
C3594      F3600   1.385       .  S
C3601      C3602   1.408       .  A
C3601      C3606   1.399       .  A
C3601      H3608   1.077       .  S
C3602      C3603   1.421       .  A
C3603      C3604   1.414       .  A
C3603      C3610   1.515       .  S
C3604      C3605   1.405       .  A
C3604      H3609   1.083       .  S
C3605      C3606   1.416       .  A
C3606      C3607   1.524       .  S
C3607      F3611   1.382       .  S
C3607      F3612   1.385       .  S
C3607      F3613   1.383       .  S
C3610      F3614   1.382       .  S
C3610      F3615   1.383       .  S
C3610      F3616   1.385       .  S
C3617      C3618   1.400       .  A
C3617      C3622   1.410       .  A
C3617      H3624   1.084       .  S
C3618      C3619   1.410       .  A
C3619      C3620   1.404       .  A
C3619      C3626   1.517       .  S
C3620      C3621   1.408       .  A
C3620      H3625   1.083       .  S
C3621      C3622   1.423       .  A
C3622      C3623   1.518       .  S
C3623      F3627   1.385       .  S
C3623      F3628   1.383       .  S
C3623      F3629   1.380       .  S
C3626      F3630   1.384       .  S
C3626      F3631   1.376       .  S
C3626      F3632   1.384       .  S
C3633      C3634   1.403       .  A
C3633      C3638   1.405       .  A
C3633      H3640   1.083       .  S
C3634      C3635   1.420       .  A
C3635      C3636   1.408       .  A
C3635      C3642   1.521       .  S
C3636      C3637   1.401       .  A
C3636      H3641   1.083       .  S
C3637      C3638   1.414       .  A
C3638      C3639   1.518       .  S
C3639      F3643   1.384       .  S
C3639      F3644   1.383       .  S
C3639      F3645   1.378       .  S
C3642      F3646   1.384       .  S
C3642      F3647   1.383       .  S
C3642      F3648   1.381       .  S
C3649      C3650   1.400       .  A
C3649      C3654   1.397       .  A
C3649      H3656   1.077       .  S
C3650      C3651   1.418       .  A
C3651      C3652   1.408       .  A
C3651      C3658   1.518       .  S
C3652      C3653   1.402       .  A
C3652      H3657   1.083       .  S
C3653      C3654   1.413       .  A
C3654      C3655   1.522       .  S
C3655      F3659   1.381       .  S
C3655      F3660   1.383       .  S
C3655      F3661   1.385       .  S
C3658      F3662   1.381       .  S
C3658      F3663   1.384       .  S
C3658      F3664   1.385       .  S
C3665      C3666   1.405       .  A
C3665      C3670   1.415       .  A
C3665      H3672   1.083       .  S
C3666      C3667   1.413       .  A
C3667      C3668   1.407       .  A
C3667      C3674   1.520       .  S
C3668      C3669   1.409       .  A
C3668      H3673   1.081       .  S
C3669      C3670   1.422       .  A
C3670      C3671   1.517       .  S
C3671      F3675   1.385       .  S
C3671      F3676   1.383       .  S
C3671      F3677   1.380       .  S
C3674      F3678   1.382       .  S
C3674      F3679   1.383       .  S
C3674      F3680   1.384   1_565  S
C3681      C3682   1.406       .  A
C3681      C3686   1.416       .  A
C3681      H3688   1.083       .  S
C3682      C3683   1.422       .  A
C3683      C3684   1.402       .  A
C3683      C3690   1.520       .  S
C3684      C3685   1.399       .  A
C3684      H3689   1.085       .  S
C3685      C3686   1.419       .  A
C3686      C3687   1.516       .  S
C3687      F3691   1.385       .  S
C3687      F3692   1.382       .  S
C3687      F3693   1.383       .  S
C3690      F3694   1.383   1_565  S
C3690      F3695   1.382       .  S
C3690      F3696   1.385       .  S
C3697      C3698   1.400       .  A
C3697      C3702   1.410       .  A
C3697      H3704   1.083       .  S
C3698      C3699   1.413       .  A
C3699      C3700   1.407       .  A
C3699      C3706   1.521       .  S
C3700      C3701   1.407       .  A
C3700      H3705   1.083       .  S
C3701      C3702   1.419       .  A
C3702      C3703   1.518       .  S
C3703      F3707   1.385       .  S
C3703      F3708   1.381       .  S
C3703      F3709   1.383       .  S
C3706      F3711   1.383       .  S
C3713      C3714   1.393       .  A
C3713      C3718   1.406       .  A
C3713      H3720   1.084       .  S
C3714      C3715   1.417       .  A
C3715      C3716   1.403       .  A
C3715      C3722   1.519       .  S
C3716      C3717   1.408       .  A
C3716      H3721   1.075       .  S
C3717      C3718   1.433       .  A
C3718      C3719   1.517       .  S
C3719      F3723   1.384       .  S
C3719      F3724   1.382       .  S
C3719      F3725   1.382       .  S
C3722      F3726   1.383       .  S
C3722      F3727   1.383       .  S
C3722      F3728   1.384       .  S
C3729      C3730   1.413       .  A
C3729      C3734   1.400       .  A
C3729      H3736   1.081       .  S
C3730      C3731   1.427       .  A
C3731      C3732   1.409       .  A
C3731      C3738   1.515       .  S
C3732      C3733   1.398       .  A
C3732      H3737   1.083       .  S
C3733      C3734   1.409       .  A
C3734      C3735   1.522       .  S
C3735      F3739   1.385       .  S
C3735      F3740   1.382       .  S
C3735      F3741   1.383       .  S
C3738      F3742   1.383       .  S
C3738      F3743   1.383       .  S
C3738      F3744   1.384       .  S
C3745      C3746   1.412       .  A
C3745      C3750   1.398       .  A
C3745      H3752   1.080       .  S
C3746      C3747   1.427       .  A
C3747      C3748   1.415       .  A
C3747      C3754   1.515       .  S
C3748      C3749   1.402       .  A
C3748      H3753   1.083       .  S
C3749      C3750   1.409       .  A
C3750      C3751   1.524       .  S
C3751      F3755   1.384       .  S
C3751      F3756   1.382       .  S
C3751      F3757   1.381       .  S
C3754      F3758   1.382       .  S
C3754      F3759   1.383       .  S
C3754      F3760   1.385       .  S
C3761      C3762   1.404       .  A
C3761      C3766   1.404       .  A
C3761      H3768   1.083       .  S
C3762      C3763   1.424       .  A
C3763      C3764   1.409       .  A
C3763      C3770   1.518       .  S
C3764      C3765   1.401       .  A
C3764      H3769   1.085       .  S
C3765      C3766   1.414       .  A
C3766      C3767   1.518       .  S
C3767      F3771   1.385       .  S
C3767      F3772   1.376       .  S
C3770      F3774   1.383       .  S
C3770      F3775   1.381       .  S
C3770      F3776   1.384       .  S
C3777      C3778   1.403       .  A
C3777      C3782   1.408       .  A
C3777      H3784   1.083       .  S
C3778      C3779   1.420       .  A
C3779      C3780   1.411       .  A
C3779      C3786   1.521       .  S
C3780      C3781   1.403       .  A
C3780      H3785   1.083       .  S
C3781      C3782   1.416       .  A
C3782      C3783   1.517       .  S
C3783      F3788   1.383       .  S
C3786      F3790   1.384       .  S
C3786      F3791   1.380       .  S
C3786      F3792   1.384       .  S
C3793      C3794   1.410       .  A
C3793      C3798   1.401       .  A
C3793      H3800   1.077       .  S
C3794      C3795   1.426       .  A
C3795      C3796   1.412       .  A
C3795      C3802   1.518       .  S
C3796      C3797   1.401       .  A
C3796      H3801   1.083       .  S
C3797      C3798   1.411       .  A
C3798      C3799   1.522       .  S
C3799      F3803   1.385       .  S
C3799      F3804   1.383       .  S
C3799      F3805   1.380       .  S
C3802      F3806   1.383       .  S
C3802      F3807   1.383       .  S
C3802      F3808   1.385       .  S
C3809      C3810   1.406       .  A
C3809      C3814   1.414       .  A
C3809      H3816   1.083       .  S
C3810      C3811   1.420       .  A
C3811      C3812   1.401       .  A
C3811      C3818   1.519       .  S
C3812      C3813   1.401       .  A
C3812      H3817   1.085       .  S
C3813      C3814   1.419       .  A
C3814      C3815   1.518       .  S
C3815      F3819   1.380       .  S
C3815      F3820   1.383       .  S
C3815      F3821   1.384       .  S
C3818      F3822   1.382       .  S
C3818      F3823   1.383       .  S
C3818      F3824   1.386       .  S
C3825      C3826   1.401       .  A
C3825      C3830   1.401       .  A
C3825      H3832   1.084       .  S
C3826      C3827   1.414       .  A
C3827      C3828   1.405       .  A
C3827      C3834   1.518       .  S
C3828      C3829   1.403       .  A
C3828      H3833   1.083       .  S
C3829      C3830   1.416       .  A
C3830      C3831   1.521       .  S
C3831      F3835   1.385       .  S
C3831      F3836   1.383       .  S
C3831      F3837   1.381       .  S
C3834      F3838   1.384       .  S
C3834      F3839   1.381       .  S
C3834      F3840   1.384       .  S
C3841      C3842   1.401       .  A
C3841      C3846   1.399       .  A
C3841      H3848   1.084       .  S
C3842      C3843   1.416       .  A
C3843      C3844   1.405       .  A
C3843      C3850   1.517       .  S
C3844      C3845   1.400       .  A
C3844      H3849   1.083       .  S
C3845      C3846   1.414       .  A
C3846      C3847   1.518       .  S
C3847      F3851   1.384       .  S
C3847      F3852   1.381       .  S
C3847      F3853   1.384       .  S
C3850      F3854   1.381       .  S
C3850      F3855   1.383       .  S
C3850      F3856   1.385       .  S
C3857      C3858   1.406       .  A
C3857      C3862   1.417       .  A
C3857      H3864   1.084       .  S
C3858      C3859   1.416       .  A
C3859      C3860   1.406       .  A
C3859      C3866   1.517       .  S
C3860      C3861   1.405       .  A
C3860      H3865   1.084       .  S
C3861      C3862   1.422       .  A
C3862      C3863   1.516       .  S
C3863      F3867   1.384       .  S
C3863      F3868   1.382       .  S
C3863      F3869   1.382       .  S
C3866      F3870   1.385       .  S
C3866      F3871   1.384       .  S
C3873      C3874   1.409       .  A
C3873      C3878   1.416       .  A
C3873      H3880   1.083       .  S
C3874      C3875   1.417       .  A
C3875      C3876   1.401       .  A
C3875      C3882   1.522       .  S
C3876      C3877   1.404       .  A
C3876      H3881   1.083       .  S
C3877      C3878   1.417       .  A
C3878      C3879   1.515       .  S
C3879      F3883   1.385       .  S
C3879      F3884   1.382       .  S
C3879      F3885   1.383       .  S
C3882      F3886   1.382       .  S
C3882      F3887   1.380       .  S
C3889      C3890   1.403       .  A
C3889      C3894   1.406       .  A
C3889      H3896   1.083       .  S
C3890      C3891   1.417       .  A
C3891      C3892   1.407       .  A
C3891      C3898   1.517       .  S
C3892      C3893   1.402       .  A
C3892      H3897   1.083       .  S
C3893      C3894   1.415       .  A
C3894      C3895   1.521       .  S
C3895      F3899   1.384       .  S
C3895      F3900   1.381       .  S
C3895      F3901   1.383       .  S
C3898      F3902   1.382       .  S
C3898      F3903   1.383       .  S
C3898      F3904   1.385       .  S
C3905      C3906   1.407       .  A
C3905      C3910   1.403       .  A
C3905      H3912   1.083       .  S
C3906      C3907   1.420       .  A
C3907      C3908   1.404       .  A
C3907      C3914   1.518       .  S
C3908      C3909   1.399       .  A
C3908      H3913   1.085       .  S
C3909      C3910   1.410       .  A
C3910      C3911   1.518       .  S
C3911      F3915   1.384       .  S
C3911      F3916   1.383       .  S
C3911      F3917   1.378       .  S
C3914      F3918   1.382       .  S
C3914      F3919   1.383       .  S
C3914      F3920   1.384       .  S
C3921      C3922   1.410       .  A
C3921      C3926   1.419       .  A
C3921      H3928   1.083       .  S
C3922      C3923   1.416       .  A
C3923      C3924   1.408       .  A
C3923      C3930   1.521       .  S
C3924      C3925   1.407       .  A
C3924      H3929   1.080       .  S
C3925      C3926   1.418       .  A
C3926      C3927   1.515       .  S
C3927      F3931   1.384       .  S
C3927      F3932   1.383       .  S
C3927      F3933   1.383       .  S
C3930      F3934   1.383       .  S
C3930      F3935   1.381       .  S
C3930      F3936   1.384   1_655  S
C3937      C3938   1.404       .  A
C3937      C3942   1.410       .  A
C3937      H3944   1.083       .  S
C3938      C3939   1.418       .  A
C3939      C3940   1.416       .  A
C3939      C3946   1.515       .  S
C3940      C3941   1.405       .  A
C3940      H3945   1.083       .  S
C3941      C3942   1.421       .  A
C3942      C3943   1.522       .  S
C3943      F3948   1.383       .  S
C3943      F3949   1.380       .  S
C3946      F3950   1.383       .  S
C3946      F3951   1.383       .  S
C3946      F3952   1.385       .  S
C3953      C3954   1.403       .  A
C3953      C3958   1.414       .  A
C3953      H3960   1.083       .  S
C3954      C3955   1.413       .  A
C3955      C3956   1.405       .  A
C3955      C3962   1.520       .  S
C3956      C3957   1.407       .  A
C3956      H3961   1.083       .  S
C3957      C3958   1.425       .  A
C3958      C3959   1.518       .  S
C3959      F3963   1.385       .  S
C3959      F3964   1.384       .  S
C3959      F3965   1.381       .  S
C3962      F3966   1.381       .  S
C3962      F3967   1.382       .  S
C3962      F3968   1.383       .  S
C3969      C3970   1.405       .  A
C3969      C3974   1.415       .  A
C3969      H3976   1.083       .  S
C3970      C3971   1.414       .  A
C3971      C3972   1.408       .  A
C3971      C3978   1.521       .  S
C3972      C3973   1.408       .  A
C3972      H3977   1.078       .  S
C3973      C3974   1.421       .  A
C3974      C3975   1.517       .  S
C3975      F3979   1.385       .  S
C3975      F3980   1.381       .  S
C3975      F3981   1.384       .  S
C3978      F3982   1.384       .  S
C3978      F3983   1.382       .  S
C3978      F3984   1.382       .  S
