geometry optimzed in LAMMPS
_audit_creation_date              2020-11-30 
_audit_creation_method            'lammps2cif' 
_symmetry_space_group_name_H-M    'P1' 
_symmetry_Int_Tables_number       1 
_symmetry_cell_setting            triclinic 
loop_ 
_symmetry_equiv_pos_as_xyz 
  x,y,z 
_cell_length_a                    45.02995243 
_cell_length_b                    47.17933931001517 
_cell_length_c                    20.02217544512323 
_cell_angle_alpha                 91.32617635236024 
_cell_angle_beta                  87.72677256670387 
_cell_angle_gamma                 113.28108536824267 
loop_ 
_atom_site_label 
_atom_site_type_symbol 
_atom_site_fract_x 
_atom_site_fract_y 
_atom_site_fract_z 
_atom_site_charge 
C1          C  0.32413154  0.18287662  0.02754701     0.30200
C2          C  0.32334471  0.18645482  0.37176116     0.30200
C3          C  0.33712675  0.16052213  0.98240252    -0.06000
C4          C  0.29129019  0.17138645  0.99245400    -0.06800
C5          C  0.34314534  0.21238651  0.98634802    -0.06700
C6          C  0.32997212  0.15938668  0.40997975    -0.06000
C7          C  0.29397645  0.18691441  0.41800070    -0.06800
C8          C  0.34973753  0.21340949  0.41173475    -0.06700
C9          C  0.34096445  0.13655115  0.38832890    -0.32100
N10         N  0.35129809  0.12483222  0.44015676     0.14400
C11         C  0.35089565  0.13899604  0.99521168    -0.32100
H12         H  0.35465098  0.13187097  0.04371495     0.16400
C13         C  0.26202952  0.17199463  0.40359286    -0.31100
N14         N  0.24631966  0.13323845  0.95796950     0.13200
C15         C  0.26631423  0.14353652  0.00865508    -0.31000
C16         C  0.37891319  0.23595693  0.39221838    -0.31300
N17         N  0.38876318  0.24902028  0.94738480     0.13700
H18         H  0.38643063  0.24279795  0.34110790     0.16300
C19         C  0.37247554  0.23430038  0.00277511    -0.31300
H20         H  0.38227786  0.23783552  0.05220820     0.16300
H21         H  0.26459980  0.12991718  0.05245395     0.16300
H22         H  0.34180616  0.12900605  0.33754993     0.16400
H23         H  0.25062016  0.17713232  0.36230325     0.16300
C24         C  0.32107120  0.18761106  0.27731825     0.30200
C25         C  0.32242424  0.18809322  0.12103198     0.30200
C26         C  0.34613739  0.17917513  0.23385482    -0.06000
C27         C  0.28950213  0.16624811  0.23516466    -0.06800
C28         C  0.32781312  0.21911749  0.23713426    -0.06700
C29         C  0.34669162  0.17993568  0.16105934    -0.06000
C30         C  0.29007460  0.16903795  0.16180158    -0.06800
C31         C  0.32852104  0.21928429  0.16287879    -0.06700
C32         C  0.37322995  0.17513071  0.13966490    -0.32100
N33         N  0.38547598  0.16632313  0.19168327     0.14400
C34         C  0.37148636  0.17143935  0.24903712    -0.32100
H35         H  0.37981878  0.16972531  0.29779404     0.16400
C36         C  0.25860895  0.16533770  0.14691363    -0.31100
N37         N  0.23796740  0.15402918  0.19955518     0.13200
C38         C  0.25626012  0.15344372  0.25166280    -0.31000
C39         C  0.33688541  0.24990561  0.14520234    -0.31300
N40         N  0.34163397  0.26822931  0.20091358     0.13700
H41         H  0.34084689  0.25860998  0.09473131     0.16300
C42         C  0.33636030  0.24994246  0.25602761    -0.31300
H43         H  0.34013051  0.25870696  0.30676190     0.16300
H44         H  0.24564791  0.14221347  0.29734274     0.16300
H45         H  0.38225968  0.17605762  0.08884365     0.16400
H46         H  0.25133993  0.17223312  0.10143895     0.16300
C47         C  0.05773954  0.43186956  0.28252186     0.42600
N48         N  0.02217882  0.45219957  0.28009962     0.01500
C49         C  0.05124039  0.10382777  0.37303286    -0.06400
H50         H  0.10062003  0.05478904  0.52601813     0.07000
C51         C  0.51711369  0.44331598  0.91012943    -0.06700
Co52       Co  0.05545304  0.02360060  0.30062688     0.74200
N53         N  0.07983843  0.04496749  0.43086741    -0.25900
Co54       Co  0.02992002  0.04061712  0.44318282     0.74100
C55         C  0.55161070  0.45790301  0.92091135     0.42700
N56         N  0.42721267  0.41296701  0.40270508     0.01100
N57         N  0.02719641  0.99469737  0.40308279     0.01200
N58         N  0.08792463  0.09569327  0.30717855    -0.46700
H59         H  0.09922781  0.48039654  0.29127408     0.07000
N60         N  0.09064112  0.03774649  0.37301509     0.01500
N61         N  0.46855162  0.03101116  0.44495287     0.01300
C62         C  0.42950097  0.04755902  0.42717717     0.42900
N63         N  0.43895936  0.41123799  0.34219616    -0.25400
C64         C  0.00451463  0.04170169  0.26672013    -0.06300
N65         N  0.02605879  0.42580000  0.27948672    -0.46500
N66         N  0.46225318  0.05598362  0.43179809    -0.46700
C67         C  0.46464666  0.03564814  0.29547462     0.42600
N68         N  0.06367166  0.06936656  0.32356397     0.01500
N69         N  0.41218978  0.45508982  0.31292556    -0.25400
N70         N  0.05033229  0.47662779  0.28250073    -0.25900
N71         N  0.40476819  0.45381355  0.37634186     0.01100
H72         H  0.38743849  0.46653878  0.23202064     0.07000
H73         H  0.39135819  0.99975027  0.44519284     0.07100
N74         N  0.04391613  0.07336069  0.36809353    -0.25900
N75         N  0.48567351  0.45846413  0.41499717    -0.25500
N76         N  0.47440258  0.49804896  0.26603581     0.01500
C77         C  0.13103008  0.04944652  0.43615018     0.42900
C78         C  0.43984762  0.38334097  0.33283530    -0.06800
N79         N  0.44156261  0.00544687  0.44705880    -0.25500
H80         H  0.50430611  0.42004321  0.92649819     0.07100
N81         N  0.12105839  0.04052468  0.37328203    -0.46700
H82         H  0.45403559  0.37792004  0.29413472     0.07000
C83         C  0.36380833  0.45835771  0.33383409     0.42700
C84         C  0.07415676  0.46584055  0.28440827    -0.06300
Co85       Co  0.45897606  0.45315581  0.29200290     0.73800
N86         N  0.42055198  0.38718411  0.43632553    -0.46500
C87         C  0.08131604  0.11903957  0.33493917     0.43000
N88         N  0.45367315  0.50882573  0.29334413    -0.46500
Co89       Co  0.44074461  0.45936910  0.43904879     0.73900
C90         C  0.41650909  0.01418867  0.43848208    -0.06800
C91         C  0.10365796  0.05214419  0.47325166    -0.06300
N92         N  0.01330699  0.01815036  0.25234326    -0.25900
N93         N  0.03551697  0.97897844  0.90468826    -0.46600
H94         H  0.03551523  0.11377558  0.39510868     0.07000
C95         C  0.38789139  0.45947271  0.28260946    -0.06800
Cl96       Cl  0.48711270  0.98995449  0.37010834    -0.49800
C97         C  0.42786693  0.36738927  0.39601944     0.42800
H98         H  0.01909943  0.06561265  0.26733159     0.07000
N99         N  0.37625584  0.45451882  0.39087933    -0.46500
C100        C  0.05974503  0.45419988  0.14587147     0.42600
N101        N  0.01677060  0.46584512  0.15818238     0.01500
C102        C  0.03245884  0.10718486  0.02460026    -0.06400
H103        H  0.06496665  0.13277823  0.17322646     0.07000
C104        C  0.42290658  0.53691756  0.24236567    -0.06700
Co105      Co  0.04106954  0.02839242  0.09480925     0.74200
N106        N  0.04117120  0.08263586  0.16576956    -0.25900
Co107      Co  0.99368903  0.06946276  0.11955159     0.74100
C108        C  0.44922410  0.55813783  0.28211268     0.42700
N109        N  0.42875854  0.45453974  0.17578407     0.01100
N110        N  0.95981921  0.06023946  0.19853270     0.01200
N111        N  0.07249013  0.09092122  0.01616309    -0.46700
H112        H  0.09235451  0.50555864  0.13792440     0.07000
N113        N  0.05448011  0.06221591  0.16230683     0.01500
N114        N  0.45677303  0.05695909  0.05676265     0.01300
C115        C  0.42042660  0.07546389  0.06863473     0.42900
N116        N  0.45421948  0.44759363  0.18055188    -0.25400
C117        C  0.06947586  0.98787878  0.51847432    -0.06300
N118        N  0.02690846  0.44272511  0.15184882    -0.46500
N119        N  0.45110012  0.08196262  0.05080997    -0.46700
C120        C  0.53846039  0.94505520  0.48830414     0.42600
N121        N  0.04459055  0.06719088  0.03214386     0.01500
N122        N  0.44298068  0.44862844  0.04693306    -0.25400
N123        N  0.04203235  0.49297108  0.15610106    -0.25900
N124        N  0.42972098  0.46905266  0.04324749     0.01100
H125        H  0.41720680  0.39927041  0.05696698     0.07000
H126        H  0.38252746  0.02845855  0.10113662     0.07100
N127        N  0.02132258  0.07744634  0.03820860    -0.25900
N128        N  0.44084960  0.53419383  0.18961957    -0.25500
N129        N  0.52244230  0.46839724  0.03822519     0.01500
C130        C  0.09694202  0.10424656  0.17766919     0.42900
C131        C  0.44523668  0.41785280  0.19537741    -0.06800
N132        N  0.43002507  0.03210673  0.06987647    -0.25500
H133        H  0.40112459  0.51865871  0.26094794     0.07100
N134        N  0.08576969  0.07372840  0.17050460    -0.46700
H135        H  0.46117904  0.40617174  0.18431179     0.07000
C136        C  0.38860734  0.42681835  0.02393584     0.42700
C137        C  0.06953995  0.48781046  0.15252689    -0.06300
Co138      Co  0.48649056  0.45934430  0.10555851     0.73800
N139        N  0.40191750  0.42800797  0.18035712    -0.46500
C140        C  0.06631058  0.11650974  0.00779181     0.43000
N141        N  0.51180231  0.43719403  0.52741956    -0.46500
Co142      Co  0.43440024  0.49782205  0.12139500     0.73900
C143        C  0.40525232  0.04154001  0.07530102    -0.06800
C144        C  0.06659040  0.11057908  0.17586638    -0.06300
N145        N  0.03171426  0.99051505  0.03314957    -0.25900
N146        N  0.96763226  0.07348251  0.25675562    -0.46600
H147        H  0.02049490  0.12157267  0.04425751     0.07000
C148        C  0.41760334  0.42076606  0.03892376    -0.06800
Cl149      Cl  0.49171498  0.01297645  0.10933419    -0.49800
C150        C  0.41033912  0.40398000  0.19606131     0.42800
H151        H  0.09465896  0.00076704  0.52864328     0.07000
N152        N  0.39962337  0.45734653  0.02480266    -0.46500
C153        C  0.16469945  0.31889476  0.23200242     0.30200
C154        C  0.16411527  0.32115599  0.38655125     0.30200
C155        C  0.13202690  0.31224372  0.27425688    -0.06000
C156        C  0.17515145  0.29573449  0.27332878    -0.06800
C157        C  0.18577413  0.34935622  0.27150325    -0.06700
C158        C  0.13204017  0.31398727  0.34820031    -0.06000
C159        C  0.17497591  0.29728204  0.34715741    -0.06800
C160        C  0.18532116  0.35015049  0.34479520    -0.06700
C161        C  0.10830744  0.32436444  0.36637014    -0.32100
N162        N  0.09429848  0.32904928  0.31144240     0.14400
C163        C  0.10662041  0.31948278  0.25697501    -0.32100
H164        H  0.10069277  0.32230607  0.20669430     0.16400
C165        C  0.17100111  0.26842501  0.36874509    -0.31100
N166        N  0.16679551  0.24882887  0.31636018     0.13200
C167        C  0.17043770  0.26519667  0.25938182    -0.31000
C168        C  0.21197195  0.37529847  0.36303199    -0.31300
N169        N  0.22908751  0.38921031  0.30739379     0.13700
H170        H  0.22102639  0.38025135  0.41310267     0.16300
C171        C  0.21312604  0.37461183  0.25241809    -0.31300
H172        H  0.22282941  0.38026213  0.20216540     0.16300
H173        H  0.16702618  0.25454931  0.21095449     0.16300
H174        H  0.10581603  0.33347381  0.41521244     0.16400
H175        H  0.16674567  0.26099336  0.42001265     0.16300
C176        C  0.16437776  0.32264008  0.47911268     0.30200
C177        C  0.16535466  0.32019413  0.13813272     0.30200
C178        C  0.16181779  0.35012810  0.52322917    -0.06000
C179        C  0.13829291  0.29619521  0.52036615    -0.06800
C180        C  0.19419762  0.32116056  0.51429314    -0.06700
C181        C  0.15018375  0.34082450  0.10244639    -0.06000
C182        C  0.14881994  0.29045482  0.09227223    -0.06800
C183        C  0.19882031  0.33303935  0.09617580    -0.06700
C184        C  0.13902248  0.36246103  0.12773202    -0.32100
N185        N  0.14576700  0.38598182  0.56912475     0.14400
C186        C  0.15015326  0.37261013  0.51049331    -0.32100
H187        H  0.14357061  0.37767829  0.46227068     0.16400
C188        C  0.13937101  0.25928656  0.10455023    -0.31100
N189        N  0.11048485  0.24822380  0.55362820     0.13200
C190        C  0.12032112  0.26665095  0.49984503    -0.31000
C191        C  0.23090993  0.34301065  0.11401495    -0.31300
N192        N  0.24587580  0.33392419  0.53804749     0.13700
H193        H  0.23944103  0.34205276  0.16333786     0.16300
C194        C  0.22482726  0.32875131  0.48843079    -0.31300
H195        H  0.23154685  0.33446576  0.43708891     0.16300
H196        H  0.11729598  0.25835575  0.44878643     0.16300
H197        H  0.13820042  0.36892482  0.17971479     0.16400
H198        H  0.12755936  0.24762696  0.14994378     0.16300
C199        C  0.07478206  0.17142428  0.00432449    -0.20100
C200        C  0.08908748  0.14970404  0.00374264    -0.06700
C201        C  0.12329852  0.16093731  0.00390497     0.14200
C202        C  0.14126382  0.19289216  0.01532078    -0.20200
C203        C  0.12536904  0.21275950  0.03095111    -0.06700
C204        C  0.09197978  0.20220766  0.02127345     0.14100
C205        C  0.07419626  0.22338479  0.02920884    -0.23500
H206        H  0.04939195  0.16430500  0.99484542     0.15400
H207        H  0.16736935  0.20184873  0.01761443     0.15500
C208        C  0.14067664  0.13952214  0.99766833    -0.23500
H209        H  0.04822426  0.21143313  0.01761480     0.05700
H210        H  0.08498919  0.24329269  0.99506347     0.08900
H211        H  0.07537148  0.23189940  0.08153132     0.08900
H212        H  0.13423872  0.12571813  0.95089112     0.08900
H213        H  0.13380035  0.12373449  0.04086735     0.08900
H214        H  0.16734313  0.15239089  0.99713741     0.05700
C215        C  0.34005365  0.37568929  0.02875187    -0.20100
C216        C  0.35288054  0.40805363  0.03602825    -0.06700
C217        C  0.33083853  0.42230988  0.05538792     0.14200
C218        C  0.29776946  0.40412884  0.06585348    -0.20200
C219        C  0.28525891  0.37224423  0.05827717    -0.06700
C220        C  0.30501642  0.34681828  0.51587633     0.14100
C221        C  0.29897787  0.31319990  0.51037177    -0.23500
H222        H  0.35674978  0.36249801  0.49906781     0.15400
H223        H  0.28102801  0.41488700  0.07893595     0.15500
C224        C  0.34103641  0.45665147  0.06675453    -0.23500
H225        H  0.32176762  0.30978736  0.50002097     0.05700
H226        H  0.28231425  0.30239001  0.46910624     0.08900
H227        H  0.28780493  0.30146124  0.55792009     0.08900
H228        H  0.35089966  0.46930687  0.01949791     0.08900
H229        H  0.35908944  0.46480816  0.10654492     0.08900
H230        H  0.32047172  0.46272794  0.08361623     0.05700
C231        C  0.12980634  0.42673991  0.10621727    -0.20100
C232        C  0.11280637  0.39593209  0.08765816    -0.06700
C233        C  0.07872414  0.38455236  0.08695923     0.14200
C234        C  0.06251189  0.40408961  0.10505514    -0.20200
C235        C  0.07934745  0.43531216  0.12388684    -0.06700
C236        C  0.11390316  0.44666493  0.12304981     0.14100
C237        C  0.13495215  0.47964432  0.13899564    -0.23500
H238        H  0.15592479  0.43521830  0.10751056     0.15400
H239        H  0.03632889  0.39464898  0.10506308     0.15500
C240        C  0.05950136  0.35136084  0.06868892    -0.23500
H241        H  0.16088302  0.48346474  0.14072127     0.05700
H242        H  0.12800093  0.48648245  0.18846855     0.08900
H243        H  0.13312225  0.49458940  0.09895857     0.08900
H244        H  0.06488079  0.33604131  0.10317638     0.08900
H245        H  0.08672967  0.36634808  0.48051413     0.08900
H246        H  0.03306502  0.34557810  0.07186869     0.05700
C247        C  0.13702502  0.16190247  0.32904540    -0.20100
C248        C  0.10308987  0.15287294  0.33255926    -0.06700
C249        C  0.09093764  0.17650374  0.33228134     0.14200
C250        C  0.11256755  0.20760952  0.32623611    -0.20200
C251        C  0.14616780  0.21634891  0.32196486    -0.06700
C252        C  0.15858296  0.19332690  0.32510087     0.14100
C253        C  0.19449640  0.20208844  0.32390481    -0.23500
H254        H  0.14679344  0.14429933  0.33018748     0.15400
H255        H  0.10328993  0.22557400  0.32512159     0.15500
C256        C  0.05530275  0.16964631  0.33642683    -0.23500
H257        H  0.20045765  0.18142780  0.32568726     0.05700
H258        H  0.20505716  0.21698957  0.36777822     0.08900
H259        H  0.20565444  0.21497551  0.27753003     0.08900
H260        H  0.51568440  0.14387500  0.32838902     0.08900
H261        H  0.04219649  0.15144188  0.29963541     0.08900
H262        H  0.05041854  0.19033584  0.32537631     0.05700
C263        C  0.31614668  0.41050633  0.33814531    -0.20100
C264        C  0.32930370  0.44181945  0.32304351    -0.06700
C265        C  0.30964753  0.45584560  0.29785560     0.14200
C266        C  0.27633324  0.43803295  0.29187542    -0.20200
C267        C  0.26329527  0.40651510  0.30756435    -0.06700
C268        C  0.28396869  0.39232930  0.32692713     0.14100
C269        C  0.27341893  0.35803797  0.33462560    -0.23500
H270        H  0.33154227  0.39977229  0.35654091     0.15400
H271        H  0.26043158  0.44857283  0.27561531     0.15500
C272        C  0.32366808  0.48937047  0.27876057    -0.23500
H273        H  0.27864928  0.35313758  0.38561560     0.05700
H274        H  0.28764078  0.34943667  0.29969211     0.08900
H275        H  0.24767519  0.34473772  0.32389014     0.08900
H276        H  0.34211330  0.49321945  0.23769083     0.08900
H277        H  0.33516361  0.50389260  0.32252369     0.08900
H278        H  0.30479082  0.49679750  0.26120501     0.05700
C279        C  0.04801096  0.37668757  0.26897626    -0.20100
C280        C  0.06938063  0.40655461  0.28842717    -0.06700
C281        C  0.09907414  0.41015992  0.31633856     0.14200
C282        C  0.10596305  0.38396927  0.32514751    -0.20200
C283        C  0.08419733  0.35426387  0.30700390    -0.06700
C284        C  0.05506257  0.35065989  0.27778789     0.14100
C285        C  0.03076185  0.31963207  0.25655126    -0.23500
H286        H  0.02527119  0.37339676  0.24687151     0.15400
H287        H  0.12895250  0.38664567  0.34508522     0.15500
C288        C  0.12366210  0.44101318  0.33763184    -0.23500
H289        H  0.02726024  0.31954987  0.20200710     0.05700
H290        H  0.00729372  0.31511799  0.28314881     0.08900
H291        H  0.03818624  0.30052548  0.26786038     0.08900
H292        H  0.11261267  0.45188195  0.37524423     0.08900
H293        H  0.13316812  0.45595781  0.29327221     0.08900
H294        H  0.14467038  0.43889156  0.36091330     0.05700
C295        C  0.42718333  0.14754768  0.16868051    -0.20100
C296        C  0.39474151  0.14096518  0.18177272    -0.06700
C297        C  0.37108854  0.11141571  0.16582065     0.14200
C298        C  0.38047245  0.09037635  0.13030290    -0.20200
C299        C  0.41279108  0.09788616  0.11123382    -0.06700
C300        C  0.43689415  0.12656001  0.13371276     0.14100
C301        C  0.47283117  0.13657680  0.12029861    -0.23500
H302        H  0.44469747  0.17036012  0.18124826     0.15400
H303        H  0.36219329  0.06852920  0.11457361     0.15500
C304        C  0.33557487  0.10260551  0.18208235    -0.23500
H305        H  0.48683092  0.15888946  0.14514616     0.05700
H306        H  0.47856719  0.13964573  0.06584659     0.08900
H307        H  0.48145841  0.11966303  0.14055325     0.08900
H308        H  0.32624540  0.11753938  0.15553356     0.08900
H309        H  0.33164001  0.10448113  0.23659628     0.08900
H310        H  0.32087694  0.07843360  0.16694002     0.05700
C311        C  0.34022566  0.32105521  0.19660757    -0.20100
C312        C  0.35763773  0.30195882  0.20036929    -0.06700
C313        C  0.39147795  0.31646274  0.20220914     0.14200
C314        C  0.40713787  0.34887932  0.19939357    -0.20200
C315        C  0.39044930  0.36876776  0.19634989    -0.06700
C316        C  0.35615411  0.35403611  0.19606042     0.14100
C317        C  0.33625737  0.37298369  0.19927085    -0.23500
H318        H  0.31408297  0.31020123  0.19583744     0.15400
H319        H  0.43309695  0.35824102  0.19833644     0.15500
C320        C  0.41116831  0.29733192  0.20781656    -0.23500
H321        H  0.31008142  0.35860097  0.19498196     0.05700
H322        H  0.34355594  0.38994881  0.15889341     0.08900
H323        H  0.34069696  0.38582989  0.24697301     0.08900
H324        H  0.40687998  0.28103442  0.16499525     0.08900
H325        H  0.40366758  0.28397228  0.25465131     0.08900
H326        H  0.43750381  0.31171928  0.20902579     0.05700
C327        C  0.18718855  0.16296230  0.18001636    -0.20100
C328        C  0.20258375  0.14335539  0.19875174    -0.06700
C329        C  0.18249501  0.11255897  0.21398893     0.14200
C330        C  0.14871262  0.10248266  0.21320924    -0.20200
C331        C  0.13290573  0.12113306  0.19174459    -0.06700
C332        C  0.15265937  0.15237192  0.17817306     0.14100
C333        C  0.13733739  0.17463924  0.16540799    -0.23500
H334        H  0.20214601  0.18675616  0.16818248     0.15400
H335        H  0.13446762  0.07865615  0.22626212     0.15500
C336        C  0.19654072  0.08923694  0.22637812    -0.23500
H337        H  0.15553667  0.19763881  0.15041309     0.05700
H338        H  0.12395005  0.17766498  0.21014394     0.08900
H339        H  0.11887022  0.16510232  0.12778212     0.08900
H340        H  0.20873421  0.09489830  0.27377689     0.08900
H341        H  0.21390042  0.08950641  0.18516484     0.08900
H342        H  0.17773134  0.06541997  0.23080966     0.05700
C343        C  0.40420517  0.11891912  0.42061525    -0.20100
C344        C  0.37046764  0.10552290  0.43391276    -0.06700
C345        C  0.35626779  0.07301089  0.43990382     0.14200
C346        C  0.37558324  0.05512087  0.43428057    -0.20200
C347        C  0.40979927  0.06837327  0.42387707    -0.06700
C348        C  0.42371661  0.10112708  0.41560524     0.14100
C349        C  0.45927205  0.11777247  0.40119259    -0.23500
H350        H  0.42271128  0.14640740  0.90654850     0.15400
H351        H  0.36355319  0.03043340  0.44034004     0.15500
C352        C  0.32038945  0.05715532  0.45278128    -0.23500
H353        H  0.46613114  0.14283899  0.39352249     0.02900
H354        H  0.46595943  0.10800627  0.35511798     0.08900
H355        H  0.47321312  0.11523145  0.44323445     0.08900
H356        H  0.30745844  0.06214435  0.41149481     0.08900
H357        H  0.31352693  0.06571293  0.50062277     0.08900
H358        H  0.31250434  0.03174104  0.45614995     0.05700
C359        C  0.42129221  0.29933287  0.50036404    -0.20100
C360        C  0.42200839  0.27934100  0.44823012    -0.06700
C361        C  0.43929602  0.29243111  0.38912632     0.14200
C362        C  0.44347139  0.32261040  0.37359711    -0.20200
C363        C  0.43304751  0.34011167  0.41968015    -0.06700
C364        C  0.42650846  0.32979046  0.48682094     0.14100
C365        C  0.42226125  0.34900216  0.54407102    -0.23500
H366        H  0.40695887  0.28986987  0.04927788     0.15400
H367        H  0.45334158  0.33154212  0.32475139     0.15500
C368        C  0.45313463  0.27457346  0.34369674    -0.23500
H369        H  0.45191801  0.33984417  0.09630653     0.05700
H370        H  0.39831095  0.35018463  0.54113182     0.08900
H371        H  0.46220589  0.37322500  0.04674484     0.08900
H372        H  0.44381755  0.27237462  0.29276309     0.08900
H373        H  0.44739106  0.25107453  0.36320521     0.08900
H374        H  0.47983924  0.28677085  0.34091653     0.05700
C375        C  0.19427773  0.10128525  0.01218953    -0.20100
C376        C  0.21849151  0.12494442  0.44947852    -0.06700
C377        C  0.21859632  0.10008623  0.40828584     0.14200
C378        C  0.18970855  0.07384786  0.40374235    -0.20200
C379        C  0.16455205  0.06958747  0.45090584    -0.06700
C380        C  0.17088779  0.08941708  0.50681935     0.14100
C381        C  0.14725372  0.06441327  0.07587011    -0.23500
H382        H  0.20079039  0.11603296  0.05611736     0.15400
H383        H  0.18730653  0.05639147  0.36580801     0.15500
C384        C  0.24939798  0.09843343  0.37951380    -0.23500
H385        H  0.16478943  0.06411057  0.11269171     0.05700
H386        H  0.12995934  0.04023128  0.07133935     0.08900
H387        H  0.13493679  0.07937314  0.09316959     0.08900
H388        H  0.27076817  0.11966915  0.38893751     0.08900
H389        H  0.24867344  0.09383816  0.32516799     0.08900
H390        H  0.25324132  0.07931279  0.40389948     0.05700
C391        C  0.32534525  0.18631749  0.52737406     0.30200
C392        C  0.32124691  0.18314484  0.87236026     0.30200
C393        C  0.33174875  0.15972008  0.48376626    -0.06000
C394        C  0.29445082  0.18278940  0.49082751    -0.06800
C395        C  0.35006717  0.21333769  0.48520000    -0.06700
C396        C  0.33518323  0.16036295  0.90864936    -0.06000
C397        C  0.28912040  0.17483980  0.91980120    -0.06800
C398        C  0.34229024  0.21270572  0.91304860    -0.06700
C399        C  0.34780592  0.13872175  0.88609020    -0.32100
N400        N  0.35873658  0.12713414  0.93726916     0.14400
C401        C  0.34497612  0.13805226  0.49757292    -0.32100
H402        H  0.35081975  0.13295009  0.54623091     0.16400
C403        C  0.25844631  0.15323621  0.90717681    -0.31100
N404        N  0.24614099  0.15307313  0.45380176     0.13200
C405        C  0.26586803  0.15858240  0.50449394    -0.31000
C406        C  0.37098404  0.23594108  0.89321013    -0.31300
N407        N  0.39643054  0.24906453  0.44710711     0.13700
H408        H  0.37876074  0.24194126  0.84190943     0.16300
C409        C  0.37952050  0.23452888  0.50259478    -0.31300
H410        H  0.38790498  0.23918924  0.55316628     0.16300
H411        H  0.26243500  0.14149970  0.54231511     0.16300
H412        H  0.34864497  0.13133751  0.83535424     0.16400
H413        H  0.24259208  0.15759205  0.87382126     0.16300
C414        C  0.32062391  0.18697841  0.77765093     0.30200
C415        C  0.32272624  0.18997964  0.62132302     0.30200
C416        C  0.34808358  0.18275900  0.73346333    -0.06000
C417        C  0.29140846  0.16363370  0.73406696    -0.06800
C418        C  0.32408511  0.21845501  0.73932533    -0.06700
C419        C  0.34870192  0.18429054  0.66058741    -0.06000
C420        C  0.29121403  0.16825908  0.66139912    -0.06800
C421        C  0.32547846  0.21966431  0.66493359    -0.06700
C422        C  0.37516975  0.17985529  0.63793375    -0.32100
N423        N  0.38801439  0.17154362  0.68968948     0.14400
C424        C  0.37418707  0.17621983  0.74761375    -0.32100
H425        H  0.38266563  0.17425766  0.79596507     0.16400
C426        C  0.25949939  0.16557342  0.65182104    -0.31100
N427        N  0.23980433  0.15208535  0.70427740     0.13200
C428        C  0.25896274  0.14988492  0.75224635    -0.31000
C429        C  0.33189493  0.24991684  0.64817432    -0.31300
N430        N  0.33466891  0.26746191  0.70449948     0.13700
H431        H  0.33645573  0.25900401  0.59793249     0.16300
C432        C  0.33013025  0.24885871  0.75908113    -0.31300
H433        H  0.33289006  0.25728407  0.81011349     0.16300
H434        H  0.24991575  0.13507255  0.79324313     0.16300
H435        H  0.38237066  0.17875324  0.58621153     0.16400
H436        H  0.25171662  0.17581002  0.61217001     0.16300
C437        C  0.03993211  0.43044319  0.78626462     0.42600
N438        N  0.00438787  0.45121512  0.77871193     0.01500
C439        C  0.03347072  0.10009140  0.88321502    -0.06400
H440        H  0.09041214  0.04908335  0.03071679     0.07000
C441        C  0.49473371  0.43405140  0.41097086    -0.06700
Co442      Co  0.04025357  0.02238346  0.80913054     0.74200
N443        N  0.06616699  0.03735048  0.93816041    -0.25900
Co444      Co  0.01512806  0.03220252  0.94486353     0.74100
C445        C  0.52956967  0.44678012  0.42015858     0.42700
N446        N  0.45042698  0.41678732  0.91210481     0.01100
N447        N  0.01025698  0.98669987  0.91117898     0.01200
N448        N  0.06925536  0.09369451  0.81042149    -0.46700
H449        H  0.08106453  0.47837880  0.79708355     0.07000
N450        N  0.07571342  0.03027285  0.87917186     0.01500
N451        N  0.48019591  0.03680566  0.93868248     0.01300
C452        C  0.43945930  0.05159895  0.92457873     0.42900
N453        N  0.46170645  0.41273905  0.85226586    -0.25400
C454        C  0.99662844  0.04838954  0.77615418    -0.06300
N455        N  0.00807343  0.42439469  0.77845490    -0.46500
N456        N  0.47247837  0.06107681  0.92674841    -0.46700
C457        C  0.47103397  0.02750811  0.78964643     0.42600
N458        N  0.05092816  0.06763479  0.83920915     0.01500
N459        N  0.42852385  0.44387071  0.81923901    -0.25400
N460        N  0.03294036  0.47491554  0.78414786    -0.25900
N461        N  0.42348977  0.45949924  0.86943424     0.01100
H462        H  0.40216520  0.39517165  0.80801832     0.07000
H463        H  0.40311540  0.00185628  0.93356579     0.07100
N464        N  0.03204384  0.07102614  0.88612997    -0.25900
N465        N  0.50545834  0.46619214  0.91226134    -0.25500
N466        N  0.48697241  0.49213096  0.75359976     0.01500
C467        C  0.11861206  0.04328130  0.93652781     0.42900
C468        C  0.46170215  0.38468950  0.84480589    -0.06800
N469        N  0.45410087  0.01061945  0.94265503    -0.25500
H470        H  0.48008539  0.41131970  0.42821345     0.07100
N471        N  0.10670983  0.03455127  0.87480303    -0.46700
H472        H  0.47072733  0.37636357  0.80108938     0.07000
C473        C  0.37769557  0.42235063  0.85937424     0.42700
C474        C  0.05613782  0.46386851  0.78899398    -0.06300
Co475      Co  0.47702939  0.45020558  0.79399840     0.73800
N476        N  0.44450599  0.39216294  0.94946927    -0.46500
C477        C  0.05946214  0.11537357  0.83478680     0.43000
N478        N  0.46211666  0.49895746  0.77227922    -0.46500
Co479      Co  0.45901909  0.46532974  0.93430888     0.73900
C480        C  0.42793835  0.01794767  0.93424442    -0.06800
C481        C  0.09155625  0.04490395  0.97792581    -0.06300
N482        N  0.00099338  0.02253575  0.75990509    -0.25900
N483        N  0.05361585  0.98782055  0.40271250    -0.46600
H484        H  0.01813969  0.10946278  0.90968712     0.07000
C485        C  0.40182383  0.41756600  0.81814906    -0.06800
Cl486      Cl  0.50180002  0.99379652  0.86338022    -0.49800
C487        C  0.45153778  0.37142413  0.91048976     0.42800
H488        H  0.01346746  0.07121608  0.76558509     0.07000
N489        N  0.39282221  0.44916846  0.89045464    -0.46500
C490        C  0.07070246  0.45655607  0.65353230     0.42600
N491        N  0.02661452  0.46598815  0.65691533     0.01500
C492        C  0.03589892  0.10361570  0.51184486    -0.06400
H493        H  0.06762052  0.13281433  0.67797650     0.07000
C494        C  0.42261980  0.52721918  0.76360548    -0.06700
Co495      Co  0.05026623  0.03131724  0.60028403     0.74200
N496        N  0.04508267  0.08297721  0.66816479    -0.25900
Co497      Co  0.99999539  0.06974327  0.61261927     0.74100
C498        C  0.45256936  0.54643509  0.79401641     0.42700
N499        N  0.41712600  0.45404591  0.68362385     0.01100
N500        N  0.96440439  0.06239908  0.68538764     0.01200
N501        N  0.08020451  0.09587060  0.53297857    -0.46700
H502        H  0.10184982  0.50828250  0.65189966     0.07000
N503        N  0.05827619  0.06263685  0.67201906     0.01500
N504        N  0.45432777  0.05837122  0.56203116     0.01300
C505        C  0.42004326  0.07919800  0.56788867     0.42900
N506        N  0.44239908  0.44642325  0.68483451    -0.25400
C507        C  0.05440941  0.97906154  0.01618323    -0.06300
N508        N  0.03794181  0.44377775  0.65269149    -0.46500
N509        N  0.45059862  0.08410401  0.55335744    -0.46700
C510        C  0.55497354  0.95439037  0.99118977     0.42600
N511        N  0.05400857  0.06939416  0.53796870     0.01500
N512        N  0.43072794  0.44794358  0.55148203    -0.25400
N513        N  0.05077951  0.49357770  0.66071554    -0.25900
N514        N  0.41568578  0.46703364  0.55249883     0.01100
H515        H  0.40830955  0.39894625  0.55156435     0.07000
H516        H  0.37974116  0.03325483  0.59968381     0.07100
N517        N  0.02805313  0.07513705  0.53183774    -0.25900
N518        N  0.43430872  0.53080186  0.70115338    -0.25500
N519        N  0.50685101  0.46273736  0.53908473     0.01500
C520        C  0.09976091  0.10510363  0.69185609     0.42900
C521        C  0.43305811  0.41603725  0.68927527    -0.06800
N522        N  0.42662155  0.03455403  0.57241956    -0.25500
H523        H  0.40567932  0.50526143  0.78235933     0.07100
N524        N  0.08883842  0.07443747  0.68734347    -0.46700
H525        H  0.44885276  0.40476013  0.67291240     0.07000
C526        C  0.37801669  0.42455501  0.51955489     0.42700
C527        C  0.07892524  0.48975480  0.66248870    -0.06300
Co528      Co  0.47393971  0.45714278  0.60889554     0.73800
N529        N  0.38980615  0.42789642  0.68335052    -0.46500
C530        C  0.07029059  0.11845552  0.51646536     0.43000
N531        N  0.53126829  0.44499344  0.02691309    -0.46500
Co532      Co  0.42420392  0.49671066  0.62942751     0.73900
C533        C  0.40327517  0.04563162  0.57623914    -0.06800
C534        C  0.06990750  0.11105419  0.67948365    -0.06300
N535        N  0.04451629  0.99630142  0.53385344    -0.25900
N536        N  0.96564189  0.08098085  0.73630171    -0.46600
H537        H  0.01906658  0.11478712  0.51448274     0.07000
C538        C  0.40754540  0.42012287  0.53604650    -0.06800
Cl539      Cl  0.48298707  0.01114922  0.60876384    -0.49800
C540        C  0.39830276  0.40277943  0.68539938     0.42800
H541        H  0.08031489  0.99084628  0.01910749     0.07000
N542        N  0.38556022  0.45437801  0.53298107    -0.46500
C543        C  0.16621870  0.32224712  0.72853985     0.30200
C544        C  0.16366621  0.32236978  0.88581211     0.30200
C545        C  0.13942594  0.32970900  0.77044838    -0.06000
C546        C  0.16155539  0.29200496  0.76977257    -0.06800
C547        C  0.19555867  0.34516361  0.77016848    -0.06700
C548        C  0.13854986  0.33038426  0.84431871    -0.06000
C549        C  0.15746179  0.29174502  0.84376832    -0.06800
C550        C  0.19469482  0.34215355  0.84383600    -0.06700
C551        C  0.11181696  0.33655166  0.86219790    -0.32100
N552        N  0.09814251  0.34171329  0.80682601     0.14400
C553        C  0.11372123  0.33630323  0.75172890    -0.32100
H554        H  0.10747519  0.33849340  0.70113438     0.16400
C555        C  0.13639738  0.26192902  0.85671261    -0.31100
N556        N  0.13516899  0.24371454  0.80353855     0.13200
C557        C  0.15092149  0.26135893  0.75081948    -0.31000
C558        C  0.22487663  0.34409151  0.85634455    -0.31300
N559        N  0.24528351  0.35632573  0.80475273     0.13700
H560        H  0.23062368  0.33265811  0.89645030     0.16300
C561        C  0.22809030  0.35793162  0.75225653    -0.31300
H562        H  0.23854284  0.36844400  0.70503480     0.16300
H563        H  0.15372179  0.25242062  0.70194931     0.16300
H564        H  0.10274932  0.33770643  0.91230553     0.16400
H565        H  0.12075895  0.25395629  0.90041084     0.16300
C566        C  0.16665620  0.32469052  0.98153848     0.30200
C567        C  0.16654063  0.32205355  0.63416427     0.30200
C568        C  0.14972036  0.34241585  0.02894045    -0.06000
C569        C  0.15269404  0.29295829  0.01901884    -0.06800
C570        C  0.19954493  0.33716655  0.02294797    -0.06700
C571        C  0.16367708  0.34998314  0.59649720    -0.06000
C572        C  0.13861757  0.29582596  0.59397653    -0.06800
C573        C  0.19594604  0.32096032  0.58739431    -0.06700
C574        C  0.15524555  0.37345244  0.62010906    -0.32100
N575        N  0.12983374  0.37555613  0.07741131     0.14400
C576        C  0.13767221  0.36502486  0.01803288    -0.32100
H577        H  0.13649201  0.37471154  0.97046914     0.16400
C578        C  0.11954702  0.26561763  0.60990431    -0.31100
N579        N  0.14322932  0.24463572  0.04771859     0.13200
C580        C  0.15502290  0.26580735  0.99955398    -0.31000
C581        C  0.22864074  0.32828591  0.59744169    -0.31300
N582        N  0.25050848  0.35574566  0.06004891     0.13700
H583        H  0.23983132  0.33125648  0.64487574     0.16300
C584        C  0.23188349  0.35488904  0.00805324    -0.31300
H585        H  0.24159507  0.36935585  0.96515028     0.16300
H586        H  0.16637294  0.26180686  0.95421037     0.16300
H587        H  0.15371441  0.37966048  0.67199369     0.16400
H588        H  0.11356905  0.25628802  0.65910781     0.16300
C589        C  0.06456366  0.16354384  0.57350690    -0.20100
C590        C  0.08467460  0.15133353  0.53800865    -0.06700
C591        C  0.11532466  0.17163502  0.51462306     0.14200
C592        C  0.12334218  0.20369193  0.51922048    -0.20200
C593        C  0.10187712  0.21551380  0.55051083    -0.06700
C594        C  0.07283359  0.19519458  0.58020700     0.14100
C595        C  0.04976361  0.20684572  0.61597086    -0.23500
H596        H  0.04170847  0.14821891  0.59558716     0.15400
H597        H  0.14668140  0.21958925  0.50015171     0.15500
C598        C  0.13986455  0.15934039  0.48913671    -0.23500
H599        H  0.02808026  0.18767972  0.63648421     0.05700
H600        H  0.04190479  0.22023521  0.58095807     0.08900
H601        H  0.06140951  0.22168823  0.65891240     0.08900
H602        H  0.12961576  0.14177349  0.44967678     0.08900
H603        H  0.14623234  0.14769913  0.53040167     0.08900
H604        H  0.16234021  0.17802383  0.46965403     0.05700
C605        C  0.33688758  0.36962505  0.50807276    -0.20100
C606        C  0.34349043  0.40140187  0.51530709    -0.06700
C607        C  0.31651611  0.41010447  0.52426229     0.14200
C608        C  0.28508220  0.38721231  0.53165635    -0.20200
C609        C  0.27904402  0.35580990  0.53009373    -0.06700
C610        C  0.30654708  0.35773139  0.03983172     0.14100
C611        C  0.29366834  0.32325208  0.03222690    -0.23500
H612        H  0.35619996  0.36443449  0.01446317     0.15400
H613        H  0.26467194  0.39373753  0.53978438     0.15500
C614        C  0.31983293  0.44323306  0.52827594    -0.23500
H615        H  0.31317734  0.31525780  0.01783153     0.05700
H616        H  0.27527987  0.31559596  0.99310947     0.08900
H617        H  0.28228014  0.31233275  0.08038881     0.08900
H618        H  0.33264584  0.45585649  0.48280831     0.08900
H619        H  0.33282368  0.45462140  0.57374321     0.08900
H620        H  0.29594455  0.44501711  0.53163469     0.05700
C621        C  0.14292036  0.43350004  0.61510318    -0.20100
C622        C  0.12811978  0.40558762  0.58035860    -0.06700
C623        C  0.09469634  0.39490872  0.56856541     0.14200
C624        C  0.07700952  0.41207015  0.59286242    -0.20200
C625        C  0.09175592  0.44028544  0.62760883    -0.06700
C626        C  0.12553947  0.45120202  0.63795759     0.14100
C627        C  0.14377429  0.48086235  0.67462149    -0.23500
H628        H  0.16837767  0.44118059  0.62534077     0.15400
H629        H  0.05126714  0.40311646  0.58478754     0.15500
C630        C  0.07725952  0.36475755  0.53283521    -0.23500
H631        H  0.16848467  0.48312650  0.68664724     0.05700
H632        H  0.13097140  0.48194263  0.72238966     0.08900
H633        H  0.14677987  0.50067364  0.64262502     0.08900
H634        H  0.08070062  0.34576004  0.55871086     0.08900
H635        H  0.06610260  0.34681342  0.01671959     0.08900
H636        H  0.05086725  0.35895599  0.53119526     0.05700
C637        C  0.11136555  0.16016636  0.83712422    -0.20100
C638        C  0.07822242  0.14854404  0.82528083    -0.06700
C639        C  0.06448721  0.16819776  0.80035979     0.14200
C640        C  0.08417995  0.19943111  0.79009103    -0.20200
C641        C  0.11704895  0.21114531  0.80439192    -0.06700
C642        C  0.13075967  0.19148256  0.82887216     0.14100
C643        C  0.16589548  0.20370374  0.84597788    -0.23500
H644        H  0.12199740  0.14473734  0.85383925     0.15400
H645        H  0.07385944  0.21507149  0.77304803     0.15500
C646        C  0.02936234  0.15628477  0.78397380    -0.23500
H647        H  0.17286899  0.18511379  0.86367716     0.05700
H648        H  0.17073651  0.22135001  0.88615097     0.08900
H649        H  0.18134912  0.21440648  0.80136863     0.08900
H650        H  0.54216588  0.16010504  0.87391879     0.08900
H651        H  0.02343795  0.13699211  0.74731333     0.08900
H652        H  0.02288933  0.17451211  0.76258393     0.05700
C653        C  0.33033341  0.37382979  0.84970935    -0.20100
C654        C  0.34286269  0.40616884  0.85142732    -0.06700
C655        C  0.32297945  0.42187993  0.83665068     0.14200
C656        C  0.29123275  0.40470853  0.81793267    -0.20200
C657        C  0.27898341  0.37247532  0.81460219    -0.06700
C658        C  0.29833117  0.35669739  0.83242984     0.14100
C659        C  0.28577576  0.32200373  0.82980427    -0.23500
H660        H  0.34586152  0.36198060  0.86064899     0.15400
H661        H  0.27551141  0.41631273  0.80686526     0.15500
C662        C  0.33525576  0.45654751  0.83786307    -0.23500
H663        H  0.30520881  0.31369811  0.83834608     0.05700
H664        H  0.27571386  0.31353850  0.78008141     0.08900
H665        H  0.26656207  0.31172296  0.86874828     0.08900
H666        H  0.35578405  0.46617929  0.80130671     0.08900
H667        H  0.34312327  0.46546788  0.88875270     0.08900
H668        H  0.31632457  0.46472716  0.82420397     0.05700
C669        C  0.04012530  0.37813451  0.76361710    -0.20100
C670        C  0.05440372  0.40714901  0.79533374    -0.06700
C671        C  0.08224427  0.41299265  0.83398727     0.14200
C672        C  0.09406117  0.38987354  0.84012182    -0.20200
C673        C  0.08058885  0.36154776  0.80674106    -0.06700
C674        C  0.05320510  0.35553799  0.76779403     0.14100
C675        C  0.03729509  0.32562067  0.73036426    -0.23500
H676        H  0.01908055  0.37330587  0.73373524     0.15400
H677        H  0.11567118  0.39467261  0.86807102     0.15500
C678        C  0.10129958  0.44339089  0.86774689    -0.23500
H679        H  0.03964854  0.33015090  0.67582793     0.05700
H680        H  0.01122944  0.31499663  0.74506804     0.08900
H681        H  0.04796287  0.30871745  0.74080178     0.08900
H682        H  0.08551565  0.45174849  0.89821444     0.08900
H683        H  0.11553582  0.46059923  0.82992624     0.08900
H684        H  0.11910955  0.44152798  0.90239083     0.05700
C685        C  0.42897998  0.15302629  0.66101251    -0.20100
C686        C  0.39696433  0.14618036  0.67922453    -0.06700
C687        C  0.37280322  0.11647874  0.66605469     0.14200
C688        C  0.38138675  0.09515325  0.63022891    -0.20200
C689        C  0.41321391  0.10261220  0.60751532    -0.06700
C690        C  0.43778920  0.13193777  0.62468629     0.14100
C691        C  0.47322326  0.14245196  0.60431587    -0.23500
H692        H  0.44665395  0.17614417  0.67056732     0.15400
H693        H  0.36272460  0.07306815  0.61719120     0.15500
C694        C  0.33742148  0.10776062  0.68433184    -0.23500
H695        H  0.48775682  0.16631869  0.62168605     0.05700
H696        H  0.47618991  0.14252586  0.54905942     0.08900
H697        H  0.48368366  0.12736744  0.62704152     0.08900
H698        H  0.32770077  0.12257421  0.65859508     0.08900
H699        H  0.33395534  0.10960889  0.73878797     0.08900
H700        H  0.32242649  0.08357555  0.66978801     0.05700
C701        C  0.33057063  0.31877634  0.68956200    -0.20100
C702        C  0.34872123  0.30126795  0.70478226    -0.06700
C703        C  0.38179263  0.31747711  0.71615172     0.14200
C704        C  0.39598673  0.34983100  0.71163919    -0.20200
C705        C  0.37870574  0.36791706  0.69438983    -0.06700
C706        C  0.34499296  0.35181682  0.68646299     0.14100
C707        C  0.32425977  0.36947217  0.67694174    -0.23500
H708        H  0.30504797  0.30662770  0.68073232     0.15400
H709        H  0.42136116  0.36078829  0.72196252     0.15500
C710        C  0.40264271  0.30037456  0.73128097    -0.23500
H711        H  0.29839266  0.35408532  0.67199150     0.05700
H712        H  0.33286266  0.38406947  0.63308740     0.08900
H713        H  0.32679094  0.38558802  0.71900858     0.08900
H714        H  0.40118739  0.28344743  0.69075806     0.08900
H715        H  0.39418056  0.28818974  0.77934239     0.08900
H716        H  0.42844002  0.31613030  0.73572001     0.05700
C717        C  0.19027799  0.16289331  0.69154626    -0.20100
C718        C  0.20477651  0.14256123  0.70875747    -0.06700
C719        C  0.18423057  0.11231248  0.72684999     0.14200
C720        C  0.15064688  0.10365606  0.73042567    -0.20200
C721        C  0.13543033  0.12247006  0.70672313    -0.06700
C722        C  0.15609315  0.15326004  0.68924654     0.14100
C723        C  0.14393110  0.17666858  0.66685807    -0.23500
H724        H  0.20582675  0.18630132  0.67770661     0.15400
H725        H  0.13606474  0.08034866  0.74658324     0.15500
C726        C  0.19707427  0.08759051  0.73363651    -0.23500
H727        H  0.15459034  0.18504371  0.61686132     0.05700
H728        H  0.15236911  0.19698552  0.70049946     0.08900
H729        H  0.11739659  0.16774791  0.66583643     0.08900
H730        H  0.21016933  0.09137649  0.77972074     0.08900
H731        H  0.21361816  0.08806352  0.69065737     0.08900
H732        H  0.17745101  0.06412425  0.73597092     0.05700
C733        C  0.41192926  0.12170306  0.91427038    -0.20100
C734        C  0.37837475  0.10808838  0.93036944    -0.06700
C735        C  0.36499135  0.07563232  0.93899027     0.14200
C736        C  0.38478321  0.05810824  0.93241744    -0.20200
C737        C  0.41889340  0.07173568  0.92017690    -0.06700
C738        C  0.43207027  0.10441446  0.90971535     0.14100
C739        C  0.46760918  0.12167690  0.89438527    -0.23500
H740        H  0.41551010  0.14372590  0.41475353     0.15400
H741        H  0.37341983  0.03346542  0.94028500     0.15500
C742        C  0.32952551  0.05943875  0.95616084    -0.23500
H743        H  0.47379354  0.14653157  0.88529696     0.02900
H744        H  0.47502824  0.11191567  0.84901088     0.08900
H745        H  0.48166706  0.12012948  0.93718081     0.08900
H746        H  0.31518771  0.06338894  0.91624603     0.08900
H747        H  0.32374591  0.06860536  0.00429401     0.08900
H748        H  0.32227890  0.03417471  0.96133006     0.05700
C749        C  0.42015411  0.29786522  0.00253203    -0.20100
C750        C  0.41681426  0.27747767  0.94835439    -0.06700
C751        C  0.43729425  0.28823416  0.89133290     0.14200
C752        C  0.45205209  0.32008782  0.88129193    -0.20200
C753        C  0.44880414  0.34061673  0.93041805    -0.06700
C754        C  0.43792606  0.32937765  0.99496998     0.14100
C755        C  0.44326206  0.34984342  0.05546095    -0.23500
H756        H  0.41170571  0.29032579  0.54935894     0.15400
H757        H  0.46451234  0.32848368  0.83396695     0.15500
C758        C  0.44396739  0.26674958  0.84187885    -0.23500
H759        H  0.42269890  0.33846277  0.59277856     0.05700
H760        H  0.42005204  0.35133876  0.07076750     0.08900
H761        H  0.44245835  0.37212029  0.54364609     0.08900
H762        H  0.43558619  0.26894906  0.79174843     0.08900
H763        H  0.43224964  0.24232661  0.85786622     0.08900
H764        H  0.47041090  0.27270423  0.83807262     0.05700
C765        C  0.19528848  0.11863602  0.50140451    -0.20100
C766        C  0.21661044  0.10615288  0.95888580    -0.06700
C767        C  0.21023813  0.08275976  0.90975875     0.14200
C768        C  0.17790750  0.06183188  0.90127457    -0.20200
C769        C  0.15387277  0.06000234  0.95009295    -0.06700
C770        C  0.16440923  0.07610535  0.01079644     0.14100
C771        C  0.15600249  0.07876927  0.57454935    -0.23500
H772        H  0.19859006  0.13529491  0.54164852     0.15400
H773        H  0.17179863  0.04619815  0.85877638     0.15500
C774        C  0.23777402  0.07714464  0.87499746    -0.23500
H775        H  0.17571878  0.08344577  0.60941364     0.05700
H776        H  0.14205630  0.05344581  0.57622804     0.08900
H777        H  0.14081442  0.09142076  0.59070717     0.08900
H778        H  0.25455997  0.09770312  0.84795751     0.08900
H779        H  0.22880016  0.05743542  0.83929510     0.08900
H780        H  0.25181290  0.07144504  0.91300334     0.05700
C781        C  0.32467180  0.68184680  0.03637715     0.30200
C782        C  0.32214531  0.68512438  0.38203149     0.30200
C783        C  0.33711910  0.65915189  0.99079809    -0.06000
C784        C  0.29214418  0.67164421  0.00019963    -0.06800
C785        C  0.34468748  0.71152131  0.99594225    -0.06700
C786        C  0.33267395  0.66048349  0.41942592    -0.06000
C787        C  0.29147518  0.68130294  0.42981901    -0.06800
C788        C  0.34636287  0.71401365  0.42109617    -0.06700
C789        C  0.34190120  0.63684243  0.39740197    -0.32100
N790        N  0.35384231  0.62593302  0.44788954     0.14400
C791        C  0.35068455  0.63731179  0.00290513    -0.32100
H792        H  0.35408046  0.62963706  0.05124982     0.16400
C793        C  0.26076687  0.66076637  0.41707038    -0.31100
N794        N  0.24610496  0.63585416  0.96358461     0.13200
C795        C  0.26599466  0.64445030  0.01480545    -0.31000
C796        C  0.37586755  0.73586307  0.40048683    -0.31300
N797        N  0.38965430  0.74932985  0.95794544     0.13700
H798        H  0.38360277  0.74155197  0.34897948     0.16300
C799        C  0.37364057  0.73402791  0.01312517    -0.31300
H800        H  0.38324980  0.73795447  0.06275254     0.16300
H801        H  0.26313945  0.63015506  0.05803423     0.16300
H802        H  0.33965449  0.62804358  0.34739192     0.16400
H803        H  0.24437932  0.66851631  0.39294792     0.16300
C804        C  0.32015464  0.68628211  0.28689902     0.30200
C805        C  0.32229608  0.68646339  0.13005710     0.30200
C806        C  0.34432814  0.67603409  0.24383373    -0.06000
C807        C  0.28811635  0.66671284  0.24404474    -0.06800
C808        C  0.32865931  0.71789738  0.24599206    -0.06700
C809        C  0.34480843  0.67629603  0.17085600    -0.06000
C810        C  0.28936309  0.66888723  0.17013345    -0.06800
C811        C  0.32971551  0.71786361  0.17168830    -0.06700
C812        C  0.37124017  0.67137882  0.14956159    -0.32100
N813        N  0.38450144  0.66399800  0.20179851     0.14400
C814        C  0.37038542  0.66905786  0.25912442    -0.32100
H815        H  0.37973555  0.66881174  0.30760616     0.16400
C816        C  0.25861605  0.66656791  0.15312866    -0.31100
N817        N  0.23759962  0.65736743  0.20561783     0.13200
C818        C  0.25493256  0.65730736  0.25936401    -0.31000
C819        C  0.33677361  0.74809954  0.15338680    -0.31300
N820        N  0.34052706  0.76641869  0.20873416     0.13700
H821        H  0.33995221  0.75654095  0.10276309     0.16300
C822        C  0.33573596  0.74853749  0.26429002    -0.31300
H823        H  0.33824937  0.75745488  0.31493985     0.16300
H824        H  0.24287582  0.64812075  0.30465722     0.16300
H825        H  0.38080809  0.67321621  0.09899854     0.16400
H826        H  0.25215991  0.67329168  0.10661799     0.16300
C827        C  0.05587283  0.93124893  0.28349356     0.42600
N828        N  0.02111422  0.95224747  0.27993883     0.01500
C829        C  0.04901439  0.60360645  0.37358869    -0.06400
H830        H  0.10152697  0.55264486  0.52551141     0.07000
C831        C  0.51368457  0.94187347  0.90903947    -0.06700
Co832      Co  0.05550665  0.52381931  0.30035195     0.74200
N833        N  0.08095835  0.54609105  0.42921293    -0.25900
Co834      Co  0.02974538  0.53755447  0.43464779     0.74100
C835        C  0.54808806  0.95596701  0.92062434     0.42700
N836        N  0.42735738  0.91185644  0.40417745     0.01100
N837        N  0.02973522  0.49298223  0.40848536     0.01200
N838        N  0.08498627  0.59634592  0.30299738    -0.46700
H839        H  0.09783473  0.97916815  0.29469827     0.07000
N840        N  0.09117578  0.53802317  0.37165084     0.01500
N841        N  0.46953386  0.53155945  0.45116712     0.01300
C842        C  0.43108581  0.54865868  0.43301895     0.42900
N843        N  0.43824885  0.90937275  0.34327367    -0.25400
C844        C  0.00438594  0.54144260  0.26693764    -0.06300
N845        N  0.02436380  0.92558798  0.27974342    -0.46500
N846        N  0.46367597  0.55681561  0.43882061    -0.46700
C847        C  0.46697479  0.53916407  0.30414637     0.42600
N848        N  0.06297049  0.56978333  0.32372660     0.01500
N849        N  0.41059958  0.95244602  0.31291028    -0.25400
N850        N  0.04952409  0.97630515  0.28239436    -0.25900
N851        N  0.40383516  0.95146313  0.37661997     0.01100
H852        H  0.38474659  0.96400969  0.23428954     0.07000
H853        H  0.39238922  0.50095574  0.44962285     0.07100
N854        N  0.04404759  0.57361569  0.37022051    -0.25900
N855        N  0.48550297  0.95784471  0.41296890    -0.25500
N856        N  0.47261834  0.99470189  0.25943186     0.01500
C857        C  0.13058567  0.54616214  0.43540122     0.42900
C858        C  0.43930820  0.88148430  0.33510175    -0.06800
N859        N  0.44236646  0.50615378  0.45172764    -0.25500
H860        H  0.50053823  0.91877826  0.92579337     0.07100
N861        N  0.12070912  0.53842727  0.37223571    -0.46700
H862        H  0.45296426  0.87561290  0.29598237     0.07000
C863        C  0.36220297  0.95537745  0.33636958     0.42700
C864        C  0.07289072  0.96506054  0.28542297    -0.06300
Co865      Co  0.45745115  0.95050684  0.29041676     0.73800
N866        N  0.42158977  0.88665071  0.43931432    -0.46500
C867        C  0.07689127  0.61882986  0.33006543     0.43000
N868        N  0.45126882  0.00544828  0.28312883    -0.46500
Co869      Co  0.44067412  0.95868075  0.43761226     0.73900
C870        C  0.41761015  0.51524376  0.44315140    -0.06800
C871        C  0.10446115  0.55130596  0.47233181    -0.06300
N872        N  0.01308854  0.51781488  0.25273196    -0.25900
N873        N  0.03581386  0.47759685  0.90515949    -0.46600
H874        H  0.03411140  0.61345982  0.39982152     0.07000
C875        C  0.38570337  0.95642181  0.28406148    -0.06800
Cl876      Cl  0.48822298  0.49111115  0.37483042    -0.49800
C877        C  0.42855601  0.86646749  0.39958923     0.42800
H878        H  0.01899086  0.56535476  0.26696896     0.07000
N879        N  0.37534000  0.95190300  0.39256999    -0.46500
C880        C  0.05884070  0.95525336  0.14668573     0.42600
N881        N  0.01564764  0.96634338  0.15790781     0.01500
C882        C  0.03289125  0.60650625  0.02438415    -0.06400
H883        H  0.06503221  0.63230190  0.16965397     0.07000
C884        C  0.41987666  0.03533024  0.23928471    -0.06700
Co885      Co  0.04230842  0.52798806  0.09478173     0.74200
N886        N  0.04184218  0.58212584  0.16540203    -0.25900
Co887      Co  0.99470756  0.56897442  0.11890577     0.74100
C888        C  0.44701920  0.05537548  0.27842636     0.42700
N889        N  0.42368438  0.95172616  0.17300166     0.01100
N890        N  0.96071555  0.56021834  0.19788474     0.01200
N891        N  0.07361260  0.59121798  0.01655082    -0.46700
H892        H  0.09124077  0.00656000  0.13888867     0.07000
N893        N  0.05543664  0.56190459  0.16247063     0.01500
N894        N  0.46302331  0.56093740  0.06165198     0.01300
C895        C  0.42663064  0.57978885  0.06995512     0.42900
N896        N  0.44927296  0.94519823  0.17855592    -0.25400
C897        C  0.07074766  0.48604894  0.52035897    -0.06300
N898        N  0.02600658  0.94341340  0.15178774    -0.46500
N899        N  0.45786703  0.58634965  0.05757393    -0.46700
C900        C  0.53853734  0.44503775  0.48900332     0.42600
N901        N  0.04589579  0.56706890  0.03211279     0.01500
N902        N  0.43908937  0.94862420  0.04332844    -0.25400
N903        N  0.04078262  0.99356298  0.15619719    -0.25900
N904        N  0.42623655  0.96947003  0.04094904     0.01100
H905        H  0.41274387  0.89950751  0.05477652     0.07000
H906        H  0.38765425  0.53170852  0.09384987     0.07100
N907        N  0.02226834  0.57680583  0.03773363    -0.25900
N908        N  0.43675804  0.03447623  0.18343872    -0.25500
N909        N  0.51837100  0.96730600  0.03672861     0.01500
C910        C  0.09756813  0.60446641  0.17564749     0.42900
C911        C  0.44063341  0.91575313  0.19442205    -0.06800
N912        N  0.43599499  0.53606943  0.06946867    -0.25500
H913        H  0.39944584  0.01577583  0.25830910     0.07100
N914        N  0.08678829  0.57387706  0.17009858    -0.46700
H915        H  0.45700024  0.90442341  0.18483578     0.07000
C916        C  0.38465768  0.92739762  0.02261993     0.42700
C917        C  0.06843573  0.98873637  0.15333875    -0.06300
Co918      Co  0.48227907  0.95848468  0.10347565     0.73800
N919        N  0.39679343  0.92529182  0.17752794    -0.46500
C920        C  0.06683162  0.61654287  0.00808129     0.43000
N921        N  0.51157835  0.93694506  0.52641473    -0.46500
Co922      Co  0.43522794  0.99661243  0.12286013     0.73900
C923        C  0.41150039  0.54579261  0.07394465    -0.06800
C924        C  0.06700888  0.61031997  0.17375265    -0.06300
N925        N  0.03281100  0.48977812  0.03332210    -0.25900
N926        N  0.96810877  0.57358605  0.25624318    -0.46600
H927        H  0.02038872  0.62041149  0.04388501     0.07000
C928        C  0.41347301  0.92099171  0.03587976    -0.06800
Cl929      Cl  0.49384921  0.51357731  0.11116143    -0.49800
C930        C  0.40569857  0.90172322  0.19494639     0.42800
H931        H  0.09591736  0.49927601  0.52889088     0.07000
N932        N  0.39574845  0.95806723  0.02444535    -0.46500
C933        C  0.16203799  0.81979328  0.23843585     0.30200
C934        C  0.16028399  0.82035669  0.39350994     0.30200
C935        C  0.12919491  0.81319196  0.28051137    -0.06000
C936        C  0.17275821  0.79661534  0.27783492    -0.06800
C937        C  0.18314527  0.84956591  0.27930484    -0.06700
C938        C  0.12872196  0.81434213  0.35453591    -0.06000
C939        C  0.16919606  0.79563541  0.35196508    -0.06800
C940        C  0.18249719  0.84948662  0.35272259    -0.06700
C941        C  0.10415180  0.82329771  0.37337396    -0.32100
N942        N  0.09025229  0.82815053  0.31842133     0.14400
C943        C  0.10350903  0.81991421  0.26339154    -0.32100
H944        H  0.09807960  0.82355460  0.21320981     0.16400
C945        C  0.15446446  0.76444727  0.36314691    -0.31100
N946        N  0.15707114  0.74766819  0.31035717     0.13200
C947        C  0.16823780  0.76686354  0.25794950    -0.31000
C948        C  0.20954499  0.87405672  0.37176411    -0.31300
N949        N  0.22688896  0.88821332  0.31654009     0.13700
H950        H  0.21848321  0.87861015  0.42193485     0.16300
C951        C  0.21083680  0.87449839  0.26109919    -0.31300
H952        H  0.22069746  0.88037893  0.21099012     0.16300
H953        H  0.16981509  0.75910969  0.20764021     0.16300
H954        H  0.10097092  0.83154198  0.42280213     0.16400
H955        H  0.13262297  0.75513692  0.39316471     0.16300
C956        C  0.16133618  0.82157375  0.48749836     0.30200
C957        C  0.16259176  0.82067818  0.14481002     0.30200
C958        C  0.15719553  0.84861586  0.53105420    -0.06000
C959        C  0.13707722  0.79401676  0.53053620    -0.06800
C960        C  0.19201435  0.82228030  0.52269763    -0.06700
C961        C  0.14802281  0.84164227  0.10892604    -0.06000
C962        C  0.14535689  0.79080574  0.09922962    -0.06800
C963        C  0.19604764  0.83292715  0.10296272    -0.06700
C964        C  0.13749558  0.86372119  0.13378458    -0.32100
N965        N  0.14318142  0.88613631  0.57510800     0.14400
C966        C  0.14688499  0.87188957  0.51710598    -0.32100
H967        H  0.14094645  0.87708650  0.46844411     0.16400
C968        C  0.13573539  0.75947958  0.11125376    -0.31100
N969        N  0.11789737  0.74602634  0.57247590     0.13200
C970        C  0.13100715  0.76354463  0.51890835    -0.31000
C971        C  0.22811059  0.84306195  0.12093029    -0.31300
N972        N  0.24365134  0.83507854  0.54584698     0.13700
H973        H  0.23668472  0.84219824  0.17025268     0.16300
C974        C  0.22245329  0.82927915  0.49636934    -0.31300
H975        H  0.22901303  0.83379662  0.44449971     0.16300
H976        H  0.14586441  0.75684769  0.48531093     0.16300
H977        H  0.13637026  0.87009968  0.18576335     0.16400
H978        H  0.12465267  0.74774131  0.15713215     0.16300
C979        C  0.07358021  0.67116695  0.00695646    -0.20100
C980        C  0.08880127  0.65012344  0.00462582    -0.06700
C981        C  0.12307033  0.66239533  0.00389098     0.14200
C982        C  0.14010292  0.69443321  0.01680936    -0.20200
C983        C  0.12326835  0.71315687  0.03612285    -0.06700
C984        C  0.08984133  0.70181405  0.02632548     0.14100
C985        C  0.07112847  0.72210268  0.03571639    -0.23500
H986        H  0.04819195  0.66358311  0.99703502     0.15400
H987        H  0.16624356  0.70411922  0.01863325     0.15500
C988        C  0.14142278  0.64183244  0.99778777    -0.23500
H989        H  0.04528237  0.70969228  0.02353599     0.05700
H990        H  0.08157645  0.74247474  0.00266375     0.08900
H991        H  0.07186442  0.72990230  0.08853320     0.08900
H992        H  0.13521580  0.62767539  0.95151985     0.08900
H993        H  0.13514844  0.62625192  0.04131265     0.08900
H994        H  0.16797408  0.65540852  0.99685833     0.05700
C995        C  0.33610966  0.87638817  0.02251515    -0.20100
C996        C  0.34937808  0.90821488  0.03762479    -0.06700
C997        C  0.32827732  0.92146163  0.06753242     0.14200
C998        C  0.29545652  0.90295389  0.08018378    -0.20200
C999        C  0.28234895  0.87170159  0.06397964    -0.06700
C1000       C  0.30207453  0.84722860  0.51546535     0.14100
C1001       C  0.29504085  0.81362518  0.50446738    -0.23500
H1002       H  0.35348672  0.86226188  0.49307080     0.15400
H1003       H  0.27933720  0.91309994  0.10125380     0.15500
C1004       C  0.33950647  0.95496315  0.08839459    -0.23500
H1005       H  0.31719457  0.80996110  0.48865540     0.05700
H1006       H  0.27703338  0.80416069  0.46489497     0.08900
H1007       H  0.28512711  0.80081941  0.55155062     0.08900
H1008       H  0.34725774  0.96999096  0.04375439     0.08900
H1009       H  0.35950733  0.96091101  0.12371269     0.08900
H1010       H  0.31999619  0.96015892  0.11454112     0.05700
C1011       C  0.12907631  0.92789761  0.11449017    -0.20100
C1012       C  0.11235651  0.89765383  0.09208603    -0.06700
C1013       C  0.07858489  0.88678951  0.08562384     0.14200
C1014       C  0.06221947  0.90613322  0.10314206    -0.20200
C1015       C  0.07874479  0.93678082  0.12571113    -0.06700
C1016       C  0.11313802  0.94788209  0.12946381     0.14100
C1017       C  0.13401703  0.98067514  0.14747456    -0.23500
H1018       H  0.15499670  0.93594903  0.11958109     0.15400
H1019       H  0.03617836  0.89706194  0.09922472     0.15500
C1020       C  0.05978694  0.85435924  0.06164729    -0.23500
H1021       H  0.15972517  0.98419924  0.15240964     0.05700
H1022       H  0.12593152  0.98747622  0.19570643     0.08900
H1023       H  0.13351659  0.99593860  0.10687383     0.08900
H1024       H  0.06384030  0.83771171  0.09458381     0.08900
H1025       H  0.08405297  0.86608935  0.48814880     0.08900
H1026       H  0.03341083  0.84881153  0.06159475     0.05700
C1027       C  0.13054516  0.66235881  0.32772426    -0.20100
C1028       C  0.09680811  0.65226618  0.32455707    -0.06700
C1029       C  0.08321997  0.67407543  0.31290622     0.14200
C1030       C  0.10385349  0.70524431  0.30402496    -0.20200
C1031       C  0.13756433  0.71519746  0.30778123    -0.06700
C1032       C  0.15092471  0.69370325  0.32174403     0.14100
C1033       C  0.18670344  0.70406732  0.33022454    -0.23500
H1034       H  0.14108253  0.64563623  0.33481005     0.15400
H1035       H  0.09377862  0.72222306  0.29570829     0.15500
C1036       C  0.04732342  0.66475884  0.30756450    -0.23500
H1037       H  0.19347010  0.68431409  0.33972624     0.05700
H1038       H  0.19425772  0.72034472  0.37321878     0.08900
H1039       H  0.19998151  0.71591027  0.28428895     0.08900
H1040       H  0.51688578  0.64556149  0.32825386     0.08900
H1041       H  0.03738762  0.64564729  0.27077720     0.08900
H1042       H  0.04147326  0.68423834  0.29118175     0.05700
C1043       C  0.31414071  0.90778556  0.34210312    -0.20100
C1044       C  0.32753912  0.93919136  0.32766800    -0.06700
C1045       C  0.30789237  0.95385419  0.30556238     0.14200
C1046       C  0.27441908  0.93660532  0.30168377    -0.20200
C1047       C  0.26111718  0.90504051  0.31655873    -0.06700
C1048       C  0.28159126  0.89016234  0.33304113     0.14100
C1049       C  0.27041324  0.85572377  0.33925623    -0.23500
H1050       H  0.32957321  0.89658428  0.35799533     0.15400
H1051       H  0.25859180  0.94759043  0.28738914     0.15500
C1052       C  0.32214337  0.98746825  0.28728283    -0.23500
H1053       H  0.28393763  0.84705706  0.30268043     0.05700
H1054       H  0.24444587  0.84295965  0.32967709     0.08900
H1055       H  0.27590690  0.85019691  0.38947921     0.08900
H1056       H  0.33980607  0.99121252  0.24471598     0.08900
H1057       H  0.33461314  0.00163342  0.33069770     0.08900
H1058       H  0.30324427  0.99540577  0.27216712     0.05700
C1059       C  0.04648551  0.87652180  0.26755275    -0.20100
C1060       C  0.06674975  0.90580136  0.29210315    -0.06700
C1061       C  0.09413165  0.90859858  0.32820671     0.14200
C1062       C  0.10011670  0.88215302  0.33892690    -0.20200
C1063       C  0.07963871  0.85298824  0.31501399    -0.06700
C1064       C  0.05257502  0.85018002  0.27858651     0.14100
C1065       C  0.02970498  0.81973786  0.25116809    -0.23500
H1066       H  0.02542863  0.87401076  0.23960826     0.15400
H1067       H  0.12181378  0.88438838  0.36391786     0.15500
C1068       C  0.11730085  0.93884442  0.35587356    -0.23500
H1069       H  0.03027443  0.82062906  0.19582206     0.05700
H1070       H  0.00476185  0.81521110  0.26992126     0.08900
H1071       H  0.03566466  0.80015843  0.26609648     0.08900
H1072       H  0.10419243  0.94935830  0.38934389     0.08900
H1073       H  0.13002135  0.95453054  0.31415070     0.08900
H1074       H  0.13613534  0.93589617  0.38577647     0.05700
C1075       C  0.42872430  0.65384651  0.15389070    -0.20100
C1076       C  0.39982815  0.64290322  0.19134851    -0.06700
C1077       C  0.38077702  0.61075497  0.19247367     0.14200
C1078       C  0.38987071  0.59085615  0.15200212    -0.20200
C1079       C  0.41759765  0.60206350  0.11026619    -0.06700
C1080       C  0.43766408  0.63425470  0.11212331     0.14100
C1081       C  0.46752301  0.64915286  0.06791674    -0.23500
H1082       H  0.44244177  0.67858749  0.15189193     0.15400
H1083       H  0.37482622  0.56645367  0.15286027     0.15500
C1084       C  0.35009521  0.59713892  0.23434894    -0.23500
H1085       H  0.47806987  0.67468442  0.07309576     0.05700
H1086       H  0.46118364  0.64396277  0.01519695     0.08900
H1087       H  0.48657830  0.64116763  0.08095541     0.08900
H1088       H  0.33357800  0.60879432  0.22490651     0.08900
H1089       H  0.35665169  0.59910604  0.28736198     0.08900
H1090       H  0.33669796  0.57216198  0.22374478     0.05700
C1091       C  0.33711736  0.81824594  0.20243296    -0.20100
C1092       C  0.35542858  0.80005844  0.20740180    -0.06700
C1093       C  0.38916389  0.81526982  0.20819515     0.14200
C1094       C  0.40389240  0.84754629  0.20361221    -0.20200
C1095       C  0.38642261  0.86660797  0.19859752    -0.06700
C1096       C  0.35220991  0.85118529  0.19925318     0.14100
C1097       C  0.33163076  0.86937665  0.19898289    -0.23500
H1098       H  0.31101201  0.80673234  0.20197503     0.15400
H1099       H  0.42978946  0.85736240  0.20221241     0.15500
C1100       C  0.40976998  0.79704911  0.21426889    -0.23500
H1101       H  0.30553052  0.85440206  0.19618224     0.05700
H1102       H  0.33851742  0.88470872  0.15585142     0.08900
H1103       H  0.33605073  0.88388771  0.24439429     0.08900
H1104       H  0.40561242  0.78032435  0.17230247     0.08900
H1105       H  0.40295435  0.78423156  0.26184079     0.08900
H1106       H  0.43598492  0.81200881  0.21425729     0.05700
C1107       C  0.18654990  0.66493340  0.18316612    -0.20100
C1108       C  0.20233334  0.64600462  0.20334258    -0.06700
C1109       C  0.18286913  0.61512128  0.21949043     0.14200
C1110       C  0.14907710  0.60415569  0.21682531    -0.20200
C1111       C  0.13298370  0.62202702  0.19276840    -0.06700
C1112       C  0.15213145  0.65336154  0.17921149     0.14100
C1113       C  0.13612575  0.67454085  0.16311086    -0.23500
H1114       H  0.20108278  0.68882610  0.17129823     0.15400
H1115       H  0.13517897  0.58028189  0.23002830     0.15500
C1116       C  0.19774825  0.59262473  0.23435810    -0.23500
H1117       H  0.15383220  0.69792129  0.14919390     0.05700
H1118       H  0.12109470  0.67668006  0.20520445     0.08900
H1119       H  0.11846541  0.66401564  0.12480302     0.08900
H1120       H  0.21030660  0.59914416  0.28161934     0.08900
H1121       H  0.21513150  0.59269461  0.19337529     0.08900
H1122       H  0.17934887  0.56867540  0.23984703     0.05700
C1123       C  0.40684958  0.62037010  0.43235001    -0.20100
C1124       C  0.37283268  0.60667564  0.43990644    -0.06700
C1125       C  0.35822254  0.57409192  0.43809327     0.14200
C1126       C  0.37750420  0.55624943  0.43339678    -0.20200
C1127       C  0.41188307  0.56968194  0.42941688    -0.06700
C1128       C  0.42624870  0.60260241  0.42593164     0.14100
C1129       C  0.46203523  0.61940630  0.41432257    -0.23500
H1130       H  0.42265417  0.64523336  0.90965197     0.15400
H1131       H  0.36522262  0.53140722  0.43397588     0.15500
C1132       C  0.32198370  0.55813447  0.44139686    -0.23500
H1133       H  0.46906582  0.64459778  0.40830246     0.02900
H1134       H  0.46938228  0.61029619  0.36797215     0.08900
H1135       H  0.47530270  0.61624367  0.45686229     0.08900
H1136       H  0.31179100  0.56524783  0.39833274     0.08900
H1137       H  0.31234151  0.56456572  0.48862286     0.08900
H1138       H  0.31386806  0.53263610  0.43956734     0.05700
C1139       C  0.42172969  0.79930405  0.50615005    -0.20100
C1140       C  0.42076083  0.77858586  0.45429386    -0.06700
C1141       C  0.43786595  0.79068351  0.39446597     0.14200
C1142       C  0.44329754  0.82110300  0.37813924    -0.20200
C1143       C  0.43404843  0.83950633  0.42406193    -0.06700
C1144       C  0.42820665  0.82996726  0.49177177     0.14100
C1145       C  0.42508592  0.85000899  0.54855474    -0.23500
H1146       H  0.40585428  0.79134031  0.05790942     0.15400
H1147       H  0.45289700  0.82946431  0.32879496     0.15500
C1148       C  0.45011570  0.77146425  0.34933405    -0.23500
H1149       H  0.45040571  0.84302000  0.10234845     0.05700
H1150       H  0.40070796  0.85047653  0.54811583     0.08900
H1151       H  0.45945561  0.87548997  0.05055044     0.08900
H1152       H  0.44109257  0.76979351  0.29824260     0.08900
H1153       H  0.44283943  0.74775610  0.36900212     0.08900
H1154       H  0.47690000  0.78216190  0.34706432     0.05700
C1155       C  0.19330447  0.60437923  0.01428181    -0.20100
C1156       C  0.22242955  0.61142859  0.46439807    -0.06700
C1157       C  0.21944179  0.59002303  0.41215460     0.14200
C1158       C  0.18921420  0.56581225  0.40402146    -0.20200
C1159       C  0.16474447  0.56063489  0.45347510    -0.06700
C1160       C  0.17320465  0.57554433  0.51589975     0.14100
C1161       C  0.14760417  0.56669605  0.07883009    -0.23500
H1162       H  0.19924834  0.61945687  0.05777889     0.15400
H1163       H  0.18457201  0.55162588  0.35921042     0.15500
C1164       C  0.24848486  0.59111489  0.37036105    -0.23500
H1165       H  0.16567727  0.56786337  0.11591238     0.05700
H1166       H  0.13128364  0.54211396  0.07552963     0.08900
H1167       H  0.13444527  0.58099257  0.09506850     0.08900
H1168       H  0.25987679  0.61285460  0.34245625     0.08900
H1169       H  0.24190280  0.57167597  0.33388544     0.08900
H1170       H  0.26676160  0.58924673  0.40364566     0.05700
C1171       C  0.32620207  0.68595355  0.53708843     0.30200
C1172       C  0.32272194  0.68325768  0.88108815     0.30200
C1173       C  0.33609356  0.66164111  0.49269798    -0.06000
C1174       C  0.29369062  0.67755624  0.50267712    -0.06800
C1175       C  0.34740783  0.71438099  0.49462681    -0.06700
C1176       C  0.33565541  0.65963452  0.91702053    -0.06000
C1177       C  0.29069300  0.67585424  0.92774467    -0.06800
C1178       C  0.34410101  0.71227199  0.92269602    -0.06700
C1179       C  0.34846376  0.63822280  0.89372571    -0.32100
N1180       N  0.35897358  0.62602609  0.94451601     0.14400
C1181       C  0.34921644  0.63988696  0.50563359    -0.32100
H1182       H  0.35533823  0.63452975  0.55377230     0.16400
C1183       C  0.25954543  0.65607851  0.91371137    -0.31100
N1184       N  0.24918670  0.64032593  0.46658629     0.13200
C1185       C  0.26889233  0.64974022  0.51716014    -0.31000
C1186       C  0.37220575  0.73619439  0.90340732    -0.31300
N1187       N  0.39394466  0.74911874  0.45444791     0.13700
H1188       H  0.37978119  0.74284095  0.85227463     0.16300
C1189       C  0.37725243  0.73534710  0.51049152    -0.31300
H1190       H  0.38653294  0.73961682  0.56040139     0.16300
H1191       H  0.26844225  0.63443236  0.55690260     0.16300
H1192       H  0.34988651  0.63152428  0.84261387     0.16400
H1193       H  0.24528398  0.66056356  0.87672212     0.16300
C1194       C  0.32227454  0.68715170  0.78671318     0.30200
C1195       C  0.32435210  0.68982291  0.63070007     0.30200
C1196       C  0.35042443  0.68401403  0.74304055    -0.06000
C1197       C  0.29371519  0.66293907  0.74315763    -0.06800
C1198       C  0.32455146  0.71820490  0.74818722    -0.06700
C1199       C  0.35116709  0.68544539  0.67015567    -0.06000
C1200       C  0.29351035  0.66724131  0.67051433    -0.06800
C1201       C  0.32578266  0.71918589  0.67384124    -0.06700
C1202       C  0.37767144  0.68081300  0.64811174    -0.32100
N1203       N  0.39016040  0.67227346  0.70024391     0.14400
C1204       C  0.37637239  0.67737407  0.75780367    -0.32100
H1205       H  0.38434734  0.67504062  0.80644994     0.16400
C1206       C  0.26145570  0.66264834  0.65945070    -0.31100
N1207       N  0.24200825  0.64863881  0.71169436     0.13200
C1208       C  0.26129273  0.64767784  0.76059636    -0.31000
C1209       C  0.33182099  0.74928538  0.65655856    -0.31300
N1210       N  0.33467484  0.76704270  0.71252414     0.13700
H1211       H  0.33628681  0.75819617  0.60617471     0.16300
C1212       C  0.33050160  0.74867870  0.76743766    -0.31300
H1213       H  0.33354802  0.75731759  0.81830298     0.16300
H1214       H  0.25223356  0.63374682  0.80309113     0.16300
H1215       H  0.38498837  0.67956428  0.59658362     0.16400
H1216       H  0.25302219  0.67149990  0.61831324     0.16300
C1217       C  0.03873018  0.93153909  0.78578132     0.42600
N1218       N  0.00320597  0.95242004  0.77822941     0.01500
C1219       C  0.03396048  0.59875069  0.88434768    -0.06400
H1220       H  0.09046753  0.54849231  0.03320594     0.07000
C1221       C  0.49486058  0.93362466  0.40978362    -0.06700
Co1222     Co  0.04142051  0.52116397  0.81080393     0.74200
N1223       N  0.06637882  0.53598827  0.94040080    -0.25900
Co1224     Co  0.01511726  0.53074559  0.94542271     0.74100
C1225       C  0.52962063  0.94661423  0.41924905     0.42700
N1226       N  0.44685045  0.91627076  0.91192438     0.01100
N1227       N  0.01050053  0.48524462  0.91161164     0.01200
N1228       N  0.07136458  0.59301595  0.81521220    -0.46700
H1229       H  0.07989753  0.97957608  0.79575104     0.07000
N1230       N  0.07638094  0.52896740  0.88181476     0.01500
N1231       N  0.48153993  0.53682717  0.94374169     0.01300
C1232       C  0.44042630  0.55106344  0.92937378     0.42900
N1233       N  0.45750331  0.91130068  0.85217282    -0.25400
C1234       C  0.99837872  0.54705187  0.77667539    -0.06300
N1235       N  0.00687816  0.92559785  0.77824656    -0.46500
N1236       N  0.47347840  0.56090611  0.93202469    -0.46700
C1237       C  0.47256540  0.52808447  0.79411848     0.42600
N1238       N  0.05214121  0.56659881  0.84165145     0.01500
N1239       N  0.42542810  0.94348477  0.81746895    -0.25400
N1240       N  0.03175843  0.97609864  0.78331020    -0.25900
N1241       N  0.42114297  0.95975322  0.86718854     0.01100
H1242       H  0.39773135  0.89504319  0.80858707     0.07000
H1243       H  0.40464015  0.50092825  0.93533931     0.07100
N1244       N  0.03244495  0.56967335  0.88706762    -0.25900
N1245       N  0.50260558  0.96513608  0.90991553    -0.25500
N1246       N  0.48426072  0.99049634  0.75144415     0.01500
C1247       C  0.11927309  0.54332190  0.93968112     0.42900
C1248       C  0.45738455  0.88311209  0.84664293    -0.06800
N1249       N  0.45569891  0.51038231  0.94625604    -0.25500
H1250       H  0.48052603  0.91092529  0.42736708     0.07100
N1251       N  0.10762003  0.53412609  0.87793562    -0.46700
H1252       H  0.46654389  0.87430843  0.80386519     0.07000
C1253       C  0.37460126  0.92384543  0.85756371     0.42700
C1254       C  0.05496538  0.96502683  0.78796551    -0.06300
Co1255     Co  0.47343945  0.94838783  0.79237899     0.73800
N1256       N  0.44146508  0.89229859  0.95104342    -0.46500
C1257       C  0.06134119  0.61464216  0.83915545     0.43000
N1258       N  0.45985492  0.99812604  0.76954312    -0.46500
Co1259     Co  0.45660179  0.96524117  0.93179864     0.73900
C1260       C  0.42930025  0.51733001  0.93765972    -0.06800
C1261       C  0.09173958  0.54416714  0.98052712    -0.06300
N1262       N  0.00266003  0.52124626  0.76002695    -0.25900
N1263       N  0.05621707  0.48689250  0.40436283    -0.46600
H1264       H  0.01803914  0.60775129  0.90973141     0.07000
C1265       C  0.39812143  0.91780380  0.81685036    -0.06800
Cl1266     Cl  0.50415849  0.49506700  0.86714414    -0.49800
C1267       C  0.44797740  0.87090843  0.91346286     0.42800
H1268       H  0.01536341  0.56992436  0.76679519     0.07000
N1269       N  0.39059364  0.95049394  0.88845629    -0.46500
C1270       C  0.07065731  0.95983459  0.65320192     0.42600
N1271       N  0.02646100  0.96903518  0.65668937     0.01500
C1272       C  0.03893504  0.60245261  0.51411523    -0.06400
H1273       H  0.07321887  0.63028362  0.68178941     0.07000
C1274       C  0.42160163  0.02757600  0.75866395    -0.06700
Co1275     Co  0.05136616  0.52882110  0.60237423     0.74200
N1276       N  0.04773450  0.58052386  0.67085805    -0.25900
Co1277     Co  0.00261400  0.56871175  0.61468905     0.74100
C1278       C  0.45162257  0.04642698  0.78926138     0.42700
N1279       N  0.41579092  0.95355970  0.68054582     0.01100
N1280       N  0.96668628  0.56176652  0.68655586     0.01200
N1281       N  0.08250510  0.59380862  0.53579041    -0.46700
H1282       H  0.10165079  0.01156349  0.64893400     0.07000
N1283       N  0.05927640  0.55900245  0.67585188     0.01500
N1284       N  0.45477243  0.55892714  0.56761296     0.01300
C1285       C  0.42029558  0.57948604  0.57690730     0.42900
N1286       N  0.44105782  0.94598283  0.68237196    -0.25400
C1287       C  0.05529298  0.47805410  0.01611779    -0.06300
N1288       N  0.03792671  0.94696203  0.65284158    -0.46500
N1289       N  0.45077151  0.58464429  0.56074772    -0.46700
C1290       C  0.55904414  0.45601743  0.99095995     0.42600
N1291       N  0.05602040  0.56754548  0.54045058     0.01500
N1292       N  0.42943428  0.94709239  0.54909385    -0.25400
N1293       N  0.05051919  0.99673027  0.65984198    -0.25900
N1294       N  0.41483811  0.96654535  0.54904834     0.01100
H1295       H  0.40607226  0.89800409  0.55189647     0.07000
H1296       H  0.38036857  0.53326212  0.60716616     0.07100
N1297       N  0.03046913  0.57381298  0.53387446    -0.25900
N1298       N  0.43343232  0.03098066  0.69634272    -0.25500
N1299       N  0.50612107  0.96228379  0.53726677     0.01500
C1300       C  0.10197686  0.59960542  0.69787218     0.42900
C1301       C  0.43187063  0.91570186  0.68870647    -0.06800
N1302       N  0.42715639  0.53493445  0.57752910    -0.25500
H1303       H  0.40437679  0.00571057  0.77731097     0.07100
N1304       N  0.08942959  0.56898394  0.69383072    -0.46700
H1305       H  0.44773452  0.90434380  0.67340675     0.07000
C1306       C  0.37633777  0.92399877  0.51927276     0.42700
C1307       C  0.07882705  0.99309983  0.66145154    -0.06300
Co1308     Co  0.47274964  0.95664344  0.60662596     0.73800
N1309       N  0.38852996  0.92729300  0.68119932    -0.46500
C1310       C  0.07335787  0.61678887  0.51842506     0.43000
N1311       N  0.52699521  0.94370820  0.02651070    -0.46500
Co1312     Co  0.42325636  0.99640772  0.62543745     0.73900
C1313       C  0.40367641  0.54584127  0.58297716    -0.06800
C1314       C  0.07365808  0.60770664  0.68321829    -0.06300
N1315       N  0.04571522  0.49435771  0.53546736    -0.25900
N1316       N  0.96802937  0.58024652  0.73769752    -0.46600
H1317       H  0.02254011  0.61411405  0.51757547     0.07000
C1318       C  0.40569762  0.91923748  0.53549842    -0.06800
Cl1319     Cl  0.48409684  0.51160916  0.61219680    -0.49800
C1320       C  0.39716147  0.90223777  0.68485575     0.42800
H1321       H  0.08124498  0.48974191  0.01821921     0.07000
N1322       N  0.38459258  0.95406264  0.53047089    -0.46500
C1323       C  0.16299990  0.82224394  0.73643846     0.30200
C1324       C  0.16087981  0.82265098  0.89306158     0.30200
C1325       C  0.13508531  0.82778928  0.77821117    -0.06000
C1326       C  0.16085248  0.79262938  0.77773849    -0.06800
C1327       C  0.19124583  0.84678548  0.77704137    -0.06700
C1328       C  0.13432725  0.82869958  0.85196603    -0.06000
C1329       C  0.15675207  0.79239146  0.85155334    -0.06800
C1330       C  0.19103914  0.84411755  0.85067440    -0.06700
C1331       C  0.10841805  0.83629553  0.86962145    -0.32100
N1332       N  0.09496161  0.84155690  0.81394365     0.14400
C1333       C  0.11009750  0.83530702  0.75914845    -0.32100
H1334       H  0.10483332  0.83845907  0.70843887     0.16400
C1335       C  0.13679051  0.76220419  0.86460617    -0.31100
N1336       N  0.13698574  0.74395903  0.81243413     0.13200
C1337       C  0.15194372  0.76189370  0.75942983    -0.31000
C1338       C  0.22199087  0.84801753  0.86173715    -0.31300
N1339       N  0.24145027  0.86082121  0.80914310     0.13700
H1340       H  0.22881143  0.83641325  0.89986945     0.16300
C1341       C  0.22335343  0.86114017  0.75747883    -0.31300
H1342       H  0.23285807  0.87075700  0.70905825     0.16300
H1343       H  0.15442337  0.75298255  0.71032770     0.16300
H1344       H  0.10028668  0.83899730  0.91968080     0.16400
H1345       H  0.12031807  0.75399429  0.90707708     0.16300
C1346       C  0.16402586  0.82496008  0.98849970     0.30200
C1347       C  0.16351561  0.82229884  0.64261217     0.30200
C1348       C  0.14768155  0.84312963  0.03544439    -0.06000
C1349       C  0.14953945  0.79328889  0.02600523    -0.06800
C1350       C  0.19681638  0.83693363  0.02972872    -0.06700
C1351       C  0.15925002  0.84918571  0.60421980    -0.06000
C1352       C  0.13572100  0.79537844  0.60442330    -0.06800
C1353       C  0.19375169  0.82247013  0.59588174    -0.06700
C1354       C  0.15189948  0.87342392  0.62687935    -0.32100
N1355       N  0.12913014  0.87716473  0.08290114     0.14400
C1356       C  0.13662459  0.86623838  0.02382930    -0.32100
H1357       H  0.13571238  0.87584214  0.97596517     0.16400
C1358       C  0.11960703  0.76517001  0.62467228    -0.31100
N1359       N  0.14030899  0.74502381  0.05462243     0.13200
C1360       C  0.15272011  0.76643633  0.00732644    -0.31000
C1361       C  0.22661139  0.83015996  0.60561890    -0.31300
N1362       N  0.24761596  0.85568779  0.06679537     0.13700
H1363       H  0.23802057  0.83374639  0.65301026     0.16300
C1364       C  0.22901775  0.85482944  0.01495044    -0.31300
H1365       H  0.23860615  0.87001542  0.97318314     0.16300
H1366       H  0.16549557  0.76291219  0.96355137     0.16300
H1367       H  0.15071175  0.88015686  0.67855663     0.16400
H1368       H  0.11188090  0.75784515  0.67494948     0.16300
C1369       C  0.06907434  0.66135775  0.58122014    -0.20100
C1370       C  0.08821402  0.64942263  0.54159066    -0.06700
C1371       C  0.11946999  0.66949703  0.52057848     0.14200
C1372       C  0.12996822  0.70112613  0.53629892    -0.20200
C1373       C  0.10970888  0.71321167  0.57208985    -0.06700
C1374       C  0.07923742  0.69274626  0.59622487     0.14100
C1375       C  0.05627454  0.70399180  0.63366679    -0.23500
H1376       H  0.04557856  0.64604808  0.60063333     0.15400
H1377       H  0.15417970  0.71645552  0.52055478     0.15500
C1378       C  0.14271986  0.65701466  0.48880602    -0.23500
H1379       H  0.03328460  0.68473838  0.64822442     0.05700
H1380       H  0.05069646  0.72022898  0.60226086     0.08900
H1381       H  0.06695264  0.71560444  0.68048769     0.08900
H1382       H  0.13126176  0.64124025  0.44712235     0.08900
H1383       H  0.14910853  0.64345531  0.52604927     0.08900
H1384       H  0.16535145  0.67576440  0.47017536     0.05700
C1385       C  0.33408935  0.86966537  0.50620147    -0.20100
C1386       C  0.34152215  0.90140709  0.51715525    -0.06700
C1387       C  0.31520189  0.91058103  0.53187423     0.14200
C1388       C  0.28373535  0.88803856  0.54170919    -0.20200
C1389       C  0.27693647  0.85654628  0.53627716    -0.06700
C1390       C  0.30286297  0.85809037  0.03507668     0.14100
C1391       C  0.29019457  0.82428877  0.01747281    -0.23500
H1392       H  0.35159292  0.86580225  0.00021130     0.15400
H1393       H  0.26389507  0.89491319  0.55441884     0.15500
C1394       C  0.31936277  0.94384871  0.53976764    -0.23500
H1395       H  0.29453598  0.82140997  0.96334061     0.05700
H1396       H  0.26391115  0.81225082  0.02913109     0.08900
H1397       H  0.30308886  0.81303357  0.04615711     0.08900
H1398       H  0.33091984  0.95686529  0.49375699     0.08900
H1399       H  0.33396749  0.95444343  0.58397198     0.08900
H1400       H  0.29584188  0.94609924  0.54795152     0.05700
C1401       C  0.14191735  0.93499026  0.61762337    -0.20100
C1402       C  0.12639153  0.90655853  0.58499139    -0.06700
C1403       C  0.09300785  0.89632516  0.57357613     0.14200
C1404       C  0.07602207  0.91435922  0.59600925    -0.20200
C1405       C  0.09138936  0.94304046  0.62858590    -0.06700
C1406       C  0.12518257  0.95363347  0.63842614     0.14100
C1407       C  0.14400931  0.98400215  0.67203934    -0.23500
H1408       H  0.16736905  0.94238538  0.62761084     0.15400
H1409       H  0.05026705  0.90566451  0.58824684     0.15500
C1410       C  0.07481765  0.86567248  0.54038301    -0.23500
H1411       H  0.16893942  0.98651133  0.68280785     0.05700
H1412       H  0.13194538  0.98599620  0.72019210     0.08900
H1413       H  0.14638946  0.00319230  0.63851953     0.08900
H1414       H  0.07780359  0.84692307  0.56819487     0.08900
H1415       H  0.06794683  0.85151011  0.00986078     0.08900
H1416       H  0.04853104  0.86038157  0.53868042     0.05700
C1417       C  0.11371863  0.65967174  0.84045203    -0.20100
C1418       C  0.08024648  0.64810138  0.83145229    -0.06700
C1419       C  0.06606486  0.66835424  0.81205566     0.14200
C1420       C  0.08547839  0.69982221  0.80433618    -0.20200
C1421       C  0.11883301  0.71128625  0.81323831    -0.06700
C1422       C  0.13308672  0.69120452  0.83287729     0.14100
C1423       C  0.16878969  0.70306756  0.84409552    -0.23500
H1424       H  0.12480800  0.64395186  0.85255632     0.15400
H1425       H  0.07462479  0.71584952  0.79296496     0.15500
C1426       C  0.03071721  0.65686427  0.79830098    -0.23500
H1427       H  0.17618637  0.68427092  0.85858930     0.05700
H1428       H  0.17529029  0.72071052  0.88461312     0.08900
H1429       H  0.18243556  0.71364632  0.79744820     0.08900
H1430       H  0.54252413  0.67513318  0.87039560     0.08900
H1431       H  0.02425058  0.63821615  0.75992120     0.08900
H1432       H  0.02394761  0.67548533  0.78006827     0.05700
C1433       C  0.32653257  0.87615112  0.84691220    -0.20100
C1434       C  0.33967309  0.90847651  0.85046733    -0.06700
C1435       C  0.32020914  0.92495158  0.83832390     0.14200
C1436       C  0.28821240  0.90851424  0.82037925    -0.20200
C1437       C  0.27538962  0.87632993  0.81540677    -0.06700
C1438       C  0.29440012  0.85979843  0.82983965     0.14100
C1439       C  0.28135095  0.82516532  0.82303096    -0.23500
H1440       H  0.34172997  0.86370482  0.85568370     0.15400
H1441       H  0.27266147  0.92061046  0.81189727     0.15500
C1442       C  0.33300213  0.95962984  0.84244583    -0.23500
H1443       H  0.30044783  0.81626049  0.83010238     0.05700
H1444       H  0.27161905  0.81814371  0.77248183     0.08900
H1445       H  0.26177093  0.81405120  0.86079284     0.08900
H1446       H  0.35342476  0.96969764  0.80582664     0.08900
H1447       H  0.34116984  0.96755475  0.89372094     0.08900
H1448       H  0.31425608  0.96840571  0.83085310     0.05700
C1449       C  0.03704370  0.87809804  0.77112318    -0.20100
C1450       C  0.05271809  0.90804414  0.79794150    -0.06700
C1451       C  0.08128028  0.91442823  0.83474022     0.14200
C1452       C  0.09287491  0.89118624  0.84239989    -0.20200
C1453       C  0.07828989  0.86213982  0.81252679    -0.06700
C1454       C  0.04995204  0.85540476  0.77650303     0.14100
C1455       C  0.03343820  0.82435350  0.74379950    -0.23500
H1456       H  0.01528024  0.87277516  0.74334474     0.15400
H1457       H  0.11496951  0.89626553  0.86884093     0.15500
C1458       C  0.10116252  0.94540343  0.86520823    -0.23500
H1459       H  0.04887544  0.82137008  0.70203758     0.05700
H1460       H  0.00994369  0.82171273  0.72313277     0.08900
H1461       H  0.02892840  0.80586516  0.78085627     0.08900
H1462       H  0.08601701  0.95445564  0.89602021     0.08900
H1463       H  0.11475713  0.96175938  0.82538352     0.08900
H1464       H  0.11960188  0.94409291  0.89887958     0.05700
C1465       C  0.43020660  0.65163273  0.67807284    -0.20100
C1466       C  0.39801656  0.64613866  0.69092526    -0.06700
C1467       C  0.37339598  0.61696024  0.67556440     0.14200
C1468       C  0.38178370  0.59538443  0.64010679    -0.20200
C1469       C  0.41385356  0.60206476  0.62042155    -0.06700
C1470       C  0.43886652  0.63011607  0.64295158     0.14100
C1471       C  0.47470336  0.63888286  0.62951651    -0.23500
H1472       H  0.44838078  0.67411507  0.69061100     0.15400
H1473       H  0.36288778  0.57394653  0.62425978     0.15500
C1474       C  0.33790891  0.60917775  0.69083105    -0.23500
H1475       H  0.48967308  0.66130922  0.65307113     0.05700
H1476       H  0.48043031  0.64145680  0.57501085     0.08900
H1477       H  0.48228154  0.62135684  0.65077376     0.08900
H1478       H  0.32922187  0.62416357  0.66287007     0.08900
H1479       H  0.33351696  0.61152999  0.74482921     0.08900
H1480       H  0.32267308  0.58502783  0.67650313     0.05700
C1481       C  0.33007153  0.81783931  0.69352062    -0.20100
C1482       C  0.34834120  0.80086339  0.71173552    -0.06700
C1483       C  0.38127545  0.81759046  0.72386700     0.14200
C1484       C  0.39528430  0.84983838  0.71601284    -0.20200
C1485       C  0.37781793  0.86739093  0.69621786    -0.06700
C1486       C  0.34416782  0.85083201  0.68851335     0.14100
C1487       C  0.32321912  0.86797414  0.67647810    -0.23500
H1488       H  0.30466375  0.80531698  0.68401202     0.15400
H1489       H  0.42062359  0.86119439  0.72616932     0.15500
C1490       C  0.40220197  0.80116967  0.74341846    -0.23500
H1491       H  0.29752492  0.85229473  0.67059066     0.05700
H1492       H  0.33233355  0.88205875  0.63222494     0.08900
H1493       H  0.32503863  0.88453856  0.71734260     0.08900
H1494       H  0.40113550  0.78331148  0.70539497     0.08900
H1495       H  0.39361071  0.79018010  0.79269781     0.08900
H1496       H  0.42790420  0.81722102  0.74754390     0.05700
C1497       C  0.19166499  0.65792925  0.70259271    -0.20100
C1498       C  0.20697994  0.63780037  0.71537164    -0.06700
C1499       C  0.18746286  0.60657627  0.72745887     0.14200
C1500       C  0.15364545  0.59655304  0.72978043    -0.20200
C1501       C  0.13780844  0.61576312  0.71168038    -0.06700
C1502       C  0.15750930  0.64715674  0.69945351     0.14100
C1503       C  0.14304572  0.66851489  0.67669288    -0.23500
H1504       H  0.20660801  0.68189267  0.69210333     0.15400
H1505       H  0.13958230  0.57241728  0.74036789     0.15500
C1506       C  0.20213443  0.58301878  0.73069975    -0.23500
H1507       H  0.16139073  0.69206034  0.66602894     0.05700
H1508       H  0.12458896  0.66998803  0.71246712     0.08900
H1509       H  0.13064003  0.65820045  0.63148388     0.08900
H1510       H  0.21739854  0.58754183  0.77405769     0.08900
H1511       H  0.21729916  0.58422271  0.68488302     0.08900
H1512       H  0.18347276  0.55914003  0.73527528     0.05700
C1513       C  0.41206352  0.62060105  0.91835257    -0.20100
C1514       C  0.37871717  0.60704003  0.93675734    -0.06700
C1515       C  0.36555149  0.57459059  0.94572556     0.14200
C1516       C  0.38546171  0.55716531  0.93859516    -0.20200
C1517       C  0.41947477  0.57085330  0.92477845    -0.06700
C1518       C  0.43228881  0.60336437  0.91259396     0.14100
C1519       C  0.46756277  0.62048604  0.89394353    -0.23500
H1520       H  0.41837822  0.64532820  0.43138040     0.15400
H1521       H  0.37431553  0.53256185  0.94720208     0.15500
C1522       C  0.33012181  0.55824714  0.96311509    -0.23500
H1523       H  0.47361068  0.64534189  0.88519814     0.02900
H1524       H  0.47387292  0.61070961  0.84750715     0.08900
H1525       H  0.48279045  0.61888542  0.93459748     0.08900
H1526       H  0.31568474  0.56214472  0.92332408     0.08900
H1527       H  0.32432546  0.56732856  0.01132716     0.08900
H1528       H  0.32299912  0.53299177  0.96811589     0.05700
C1529       C  0.41931544  0.79912751  0.01132351    -0.20100
C1530       C  0.41710598  0.77822777  0.95877674    -0.06700
C1531       C  0.43787520  0.78872835  0.90209256     0.14200
C1532       C  0.45179888  0.82044752  0.89003154    -0.20200
C1533       C  0.44717298  0.84118535  0.93675853    -0.06700
C1534       C  0.43627960  0.83069644  0.00181729     0.14100
C1535       C  0.44110514  0.85196902  0.06073660    -0.23500
H1536       H  0.41231473  0.79088827  0.55563068     0.15400
H1537       H  0.46437901  0.82849194  0.84266212     0.15500
C1538       C  0.44506074  0.76698390  0.85425988    -0.23500
H1539       H  0.42729533  0.84050286  0.59746817     0.05700
H1540       H  0.41760582  0.85294860  0.07552218     0.08900
H1541       H  0.44473254  0.87340971  0.54515220     0.08900
H1542       H  0.43705992  0.76890097  0.80349967     0.08900
H1543       H  0.43325921  0.74265341  0.87081340     0.08900
H1544       H  0.47147874  0.77287531  0.85203405     0.05700
C1545       C  0.20059439  0.60275523  0.51891982    -0.20100
C1546       C  0.21616937  0.60917563  0.96221752    -0.06700
C1547       C  0.21081951  0.58532915  0.91448878     0.14200
C1548       C  0.17879436  0.56389433  0.90504080    -0.20200
C1549       C  0.15429590  0.56159182  0.95313980    -0.06700
C1550       C  0.16413519  0.57843313  0.01331481     0.14100
C1551       C  0.15522952  0.56232647  0.57972763    -0.23500
H1552       H  0.20539417  0.61671413  0.56413593     0.15400
H1553       H  0.17345506  0.54775716  0.86344817     0.15500
C1554       C  0.23894998  0.57861546  0.88638721    -0.23500
H1555       H  0.17233681  0.56042297  0.61559552     0.05700
H1556       H  0.13737929  0.53859612  0.57222492     0.08900
H1557       H  0.14338491  0.57731589  0.60056352     0.08900
H1558       H  0.25734234  0.59857906  0.86045819     0.08900
H1559       H  0.23085820  0.55844208  0.85180091     0.08900
H1560       H  0.25102664  0.57293348  0.92828519     0.05700
C1561       C  0.82312277  0.18943213  0.02948311     0.30200
C1562       C  0.82002091  0.18594237  0.37433619     0.30200
C1563       C  0.83199482  0.16415826  0.98653670    -0.06000
C1564       C  0.79132351  0.18279338  0.99308265    -0.06800
C1565       C  0.84589493  0.21737613  0.98697948    -0.06700
C1566       C  0.83512226  0.16368091  0.41016022    -0.06000
C1567       C  0.78779852  0.17662220  0.42155451    -0.06800
C1568       C  0.84016447  0.21560994  0.41583074    -0.06700
C1569       C  0.84889002  0.14269496  0.38769643    -0.32100
N1570       N  0.86008234  0.13127996  0.43899379     0.14400
C1571       C  0.84530810  0.14273656  0.00130007    -0.32100
H1572       H  0.85066017  0.13748386  0.05018823     0.16400
C1573       C  0.75757767  0.15462308  0.40794531    -0.31100
N1574       N  0.74448148  0.14910703  0.95658640     0.13200
C1575       C  0.76430313  0.15681946  0.00740073    -0.31000
C1576       C  0.86867954  0.23931427  0.39689095    -0.31300
N1577       N  0.89295559  0.25174432  0.94757785     0.13700
H1578       H  0.87669156  0.24557251  0.34580097     0.16300
C1579       C  0.87574465  0.23818635  0.00348463    -0.31300
H1580       H  0.88454210  0.24256841  0.05375870     0.16300
H1581       H  0.76220117  0.14083132  0.04689034     0.16300
H1582       H  0.85020866  0.13549036  0.33688620     0.16400
H1583       H  0.74119809  0.15972108  0.37736806     0.16300
C1584       C  0.81873982  0.19024096  0.27970996     0.30200
C1585       C  0.82087173  0.19331137  0.12328908     0.30200
C1586       C  0.84628576  0.18645984  0.23556409    -0.06000
C1587       C  0.78948896  0.16690264  0.23579891    -0.06800
C1588       C  0.82194583  0.22170021  0.24144630    -0.06700
C1589       C  0.84700039  0.18790869  0.16272633    -0.06000
C1590       C  0.78954809  0.17147132  0.16297529    -0.06800
C1591       C  0.82324116  0.22287996  0.16696774    -0.06700
C1592       C  0.87396234  0.18410833  0.14078581    -0.32100
N1593       N  0.88687782  0.17617800  0.19302474     0.14400
C1594       C  0.87286302  0.18100872  0.25041640    -0.32100
H1595       H  0.88160076  0.17995735  0.29901905     0.16400
C1596       C  0.75794023  0.16842713  0.15169342    -0.31100
N1597       N  0.73803238  0.15516303  0.20379754     0.13200
C1598       C  0.75682060  0.15339246  0.25298325    -0.31000
C1599       C  0.82952602  0.25306697  0.15009999    -0.31300
N1600       N  0.83244160  0.27066753  0.20632893     0.13700
H1601       H  0.83406847  0.26211872  0.09982826     0.16300
C1602       C  0.82801509  0.25213840  0.26103460    -0.31300
H1603       H  0.83097484  0.26065353  0.31199486     0.16300
H1604       H  0.74718501  0.13861893  0.29373172     0.16300
H1605       H  0.88166305  0.18333898  0.08931984     0.16400
H1606       H  0.75024222  0.17792832  0.11057662     0.16300
C1607       C  0.54127931  0.42907423  0.28368578     0.42600
N1608       N  0.50574317  0.44990987  0.27699895     0.01500
C1609       C  0.53408878  0.09582616  0.37641040    -0.06400
H1610       H  0.59121034  0.04614739  0.52514098     0.07000
C1611       C  0.99298761  0.43553688  0.91290491    -0.06700
Co1612     Co  0.54117954  0.01766044  0.30366171     0.74200
N1613       N  0.56718967  0.03432004  0.43236747    -0.25900
Co1614     Co  0.51592481  0.02861446  0.43869535     0.74100
C1615       C  0.02781935  0.44824491  0.92194327     0.42700
N1616       N  0.94866710  0.41846147  0.41512566     0.01100
N1617       N  0.51177448  0.98316957  0.40759781     0.01200
N1618       N  0.57034983  0.08963344  0.30458660    -0.46700
H1619       H  0.58241423  0.47707486  0.29511576     0.07000
N1620       N  0.57690997  0.02696180  0.37380908     0.01500
N1621       N  0.98046052  0.03882757  0.44179514     0.01300
C1622       C  0.93996880  0.05426787  0.42847358     0.42900
N1623       N  0.95898385  0.41379726  0.35479322    -0.25400
C1624       C  0.49678254  0.04252671  0.26688546    -0.06300
N1625       N  0.50944593  0.42310556  0.27609620    -0.46500
N1626       N  0.97294763  0.06335635  0.43103736    -0.46700
C1627       C  0.97242214  0.03025895  0.29420917     0.42600
N1628       N  0.55131889  0.06329753  0.33170699     0.01500
N1629       N  0.92681561  0.44579709  0.32161745    -0.25400
N1630       N  0.53426325  0.47362991  0.28265303    -0.25900
N1631       N  0.92224818  0.46166472  0.37184894     0.01100
H1632       H  0.89944286  0.39731806  0.30977138     0.07000
H1633       H  0.90324613  0.00463571  0.43758327     0.07100
N1634       N  0.53223037  0.06664919  0.37821738    -0.25900
N1635       N  0.00415227  0.46718649  0.41276569    -0.25500
N1636       N  0.98536501  0.49323491  0.25553433     0.01500
C1637       C  0.61985646  0.04090935  0.43138990     0.42900
C1638       C  0.95891252  0.38569541  0.34805034    -0.06800
N1639       N  0.95419531  0.01280373  0.44526891    -0.25500
H1640       H  0.97827019  0.41283894  0.93030194     0.07100
N1641       N  0.60804909  0.03167622  0.36973872    -0.46700
H1642       H  0.96768027  0.37709902  0.30439145     0.07000
C1643       C  0.87599221  0.42533271  0.36140691     0.42700
C1644       C  0.55748734  0.46256000  0.28705782    -0.06300
Co1645     Co  0.97484882  0.45110530  0.29583869     0.73800
N1646       N  0.94374727  0.39437839  0.45357694    -0.46500
C1647       C  0.56068223  0.11137472  0.32957033     0.43000
N1648       N  0.96103984  0.50081934  0.27466287    -0.46500
Co1649     Co  0.95806954  0.46722384  0.43613710     0.73900
C1650       C  0.92819500  0.02046966  0.43709862    -0.06800
C1651       C  0.59253557  0.04218566  0.47231144    -0.06300
N1652       N  0.50178924  0.01678042  0.25326497    -0.25900
N1653       N  0.55465099  0.98483899  0.90191462    -0.46600
H1654       H  0.51869804  0.10513210  0.40285377     0.07000
C1655       C  0.89972466  0.41992131  0.32021380    -0.06800
Cl1656     Cl  0.00390362  0.99780151  0.37176687    -0.49800
C1657       C  0.95014715  0.37326278  0.41477230     0.42800
H1658       H  0.51373255  0.06552278  0.25928950     0.07000
N1659       N  0.89157805  0.45198728  0.39278491    -0.46500
C1660       C  0.57345998  0.45761328  0.15217016     0.42600
N1661       N  0.52926710  0.46692920  0.15604786     0.01500
C1662       C  0.53288903  0.09960749  0.00535447    -0.06400
H1663       H  0.56733399  0.13175758  0.16609637     0.07000
C1664       C  0.92273814  0.53042030  0.26506362    -0.06700
Co1665     Co  0.54938502  0.02925772  0.09694723     0.74200
N1666       N  0.54385122  0.08156586  0.16157275    -0.25900
Co1667     Co  0.49819301  0.06691682  0.10742103     0.74100
C1668       C  0.95294067  0.54912234  0.29517582     0.42700
N1669       N  0.91626973  0.45705289  0.18538538     0.01100
N1670       N  0.46325277  0.06056288  0.18143862     0.01200
N1671       N  0.57790775  0.09310962  0.02593055    -0.46700
H1672       H  0.60447458  0.50943404  0.14876693     0.07000
N1673       N  0.55695450  0.06116839  0.16671525     0.01500
N1674       N  0.95325888  0.06206720  0.06989542     0.01300
C1675       C  0.91875205  0.08264760  0.07765777     0.42900
N1676       N  0.94143688  0.44926466  0.18666448    -0.25400
C1677       C  0.55608998  0.97648200  0.51384860    -0.06300
N1678       N  0.54071655  0.44483017  0.15190367    -0.46500
N1679       N  0.94932979  0.08779259  0.06251686    -0.46700
C1680       C  0.05483537  0.95680021  0.49058829     0.42600
N1681       N  0.55212335  0.06632922  0.03224912     0.01500
N1682       N  0.92996640  0.45054711  0.05333650    -0.25400
N1683       N  0.55332733  0.49461818  0.15958678    -0.25900
N1684       N  0.91447461  0.46928216  0.05471249     0.01100
H1685       H  0.90879477  0.40155049  0.05238659     0.07000
H1686       H  0.87871675  0.03655889  0.10883543     0.07100
N1687       N  0.52576378  0.07139628  0.02612138    -0.25900
N1688       N  0.93420117  0.53398938  0.20245758    -0.25500
N1689       N  0.00562605  0.46487707  0.04061070     0.01500
C1690       C  0.59836852  0.10349772  0.18490768     0.42900
C1691       C  0.93197157  0.41889791  0.19140050    -0.06800
N1692       N  0.92560682  0.03812880  0.08009111    -0.25500
H1693       H  0.90550067  0.50856297  0.28377514     0.07100
N1694       N  0.58750417  0.07291037  0.18157810    -0.46700
H1695       H  0.94771976  0.40755711  0.17515289     0.07000
C1696       C  0.87742059  0.42635185  0.02156707     0.42700
C1697       C  0.58163473  0.49091445  0.16099948    -0.06300
Co1698     Co  0.97302220  0.45968436  0.11061894     0.73800
N1699       N  0.88888563  0.43099598  0.18490486    -0.46500
C1700       C  0.56729114  0.11506525  0.00835190     0.43000
N1701       N  0.02843187  0.44424757  0.52719678    -0.46500
Co1702     Co  0.92352110  0.49965899  0.13096957     0.73900
C1703       C  0.90213600  0.04906216  0.08501209    -0.06800
C1704       C  0.56874834  0.10971258  0.17211463    -0.06300
N1705       N  0.54399722  0.99386999  0.03257486    -0.25900
N1706       N  0.46592082  0.07724912  0.23607721    -0.46600
H1707       H  0.51560751  0.11020743  0.00828601     0.07000
C1708       C  0.90733449  0.42254622  0.03747582    -0.06800
Cl1709     Cl  0.98231350  0.01447992  0.11351273    -0.49800
C1710       C  0.89726306  0.40582160  0.18700516     0.42800
H1711       H  0.58194364  0.98862850  0.51704960     0.07000
N1712       N  0.88426806  0.45606932  0.03561113    -0.46500
C1713       C  0.66550947  0.31905504  0.22737120     0.30200
C1714       C  0.66283125  0.31932875  0.38460308     0.30200
C1715       C  0.63808134  0.32564339  0.26898511    -0.06000
C1716       C  0.66175124  0.28904635  0.26884923    -0.06800
C1717       C  0.69430270  0.34269915  0.26905706    -0.06700
C1718       C  0.63712741  0.32641253  0.34286206    -0.06000
C1719       C  0.65764688  0.28887803  0.34288148    -0.06800
C1720       C  0.69347339  0.33996655  0.34267341    -0.06700
C1721       C  0.61082140  0.33332493  0.36044754    -0.32100
N1722       N  0.59733995  0.33857455  0.30483998     0.14400
C1723       C  0.61268266  0.33264557  0.24994883    -0.32100
H1724       H  0.60680083  0.33518112  0.19925802     0.16400
C1725       C  0.63676181  0.25902212  0.35610722    -0.31100
N1726       N  0.63572712  0.24065550  0.30342524     0.13200
C1727       C  0.65110919  0.25827205  0.25029675    -0.31000
C1728       C  0.72428608  0.34429008  0.35579161    -0.31300
N1729       N  0.74435397  0.35779345  0.30449044     0.13700
H1730       H  0.73105677  0.33319082  0.39514419     0.16300
C1731       C  0.72672857  0.35760693  0.25129667    -0.31300
H1732       H  0.73679086  0.36757304  0.20342782     0.16300
H1733       H  0.65387310  0.24923604  0.20156471     0.16300
H1734       H  0.60226865  0.33539186  0.41053768     0.16400
H1735       H  0.62075351  0.25117524  0.39936400     0.16300
C1736       C  0.66564658  0.32167105  0.48032195     0.30200
C1737       C  0.66619539  0.31916827  0.13306587     0.30200
C1738       C  0.64923606  0.33990184  0.52721268    -0.06000
C1739       C  0.65118398  0.29002308  0.51824546    -0.06800
C1740       C  0.69843677  0.33384560  0.52167285    -0.06700
C1741       C  0.66280755  0.34710676  0.09646813    -0.06000
C1742       C  0.63890072  0.29271900  0.09172154    -0.06800
C1743       C  0.69610941  0.31917483  0.08639835    -0.06700
C1744       C  0.65515773  0.37095299  0.12100306    -0.32100
N1745       N  0.63101810  0.37434746  0.57447964     0.14400
C1746       C  0.63816379  0.36305943  0.51546579    -0.32100
H1747       H  0.63708264  0.37248782  0.46750955     0.16400
C1748       C  0.62068289  0.26190382  0.10518475    -0.31100
N1749       N  0.64163712  0.24175080  0.54788719     0.13200
C1750       C  0.65370253  0.26282974  0.49965816    -0.31000
C1751       C  0.72894057  0.32726687  0.09668903    -0.31300
N1752       N  0.74903759  0.35489425  0.55995813     0.13700
H1753       H  0.74006736  0.33059845  0.14431611     0.16300
C1754       C  0.73027873  0.35335183  0.50786490    -0.31300
H1755       H  0.73932374  0.36861424  0.46598386     0.16300
H1756       H  0.66556080  0.25877686  0.45506194     0.16300
H1757       H  0.65373809  0.37691895  0.17309547     0.16400
H1758       H  0.61432266  0.25141560  0.15342506     0.16300
C1759       C  0.56176682  0.16158717  0.05805529    -0.20100
C1760       C  0.58180197  0.14851578  0.02523554    -0.06700
C1761       C  0.61326268  0.16812244  0.00383304     0.14200
C1762       C  0.62269505  0.20034420  0.01060331    -0.20200
C1763       C  0.60155931  0.21291791  0.04048646    -0.06700
C1764       C  0.57100870  0.19329360  0.06480576     0.14100
C1765       C  0.54716106  0.20523942  0.09596175    -0.23500
H1766       H  0.53838090  0.14707085  0.07923993     0.15400
H1767       H  0.64694918  0.21571853  0.99519470     0.15500
C1768       C  0.63784044  0.15493999  0.98356961    -0.23500
H1769       H  0.54156994  0.19734514  0.14847812     0.05700
H1770       H  0.52464086  0.19627549  0.06731565     0.08900
H1771       H  0.55605686  0.23073216  0.09601739     0.08900
H1772       H  0.62818594  0.13673426  0.94507178     0.08900
H1773       H  0.64319375  0.14387266  0.02719686     0.08900
H1774       H  0.66089848  0.17307301  0.96484765     0.05700
C1775       C  0.83750436  0.37081879  0.01138002    -0.20100
C1776       C  0.84323648  0.40249391  0.01640057    -0.06700
C1777       C  0.81567678  0.41043017  0.02246304     0.14200
C1778       C  0.78448669  0.38701338  0.02899617    -0.20200
C1779       C  0.77925234  0.35579582  0.02968379    -0.06700
C1780       C  0.80544995  0.35821403  0.54269888     0.14100
C1781       C  0.79352346  0.32364099  0.54076482    -0.23500
H1782       H  0.85533181  0.36570102  0.51838333     0.15400
H1783       H  0.76362528  0.39299225  0.03496861     0.15500
C1784       C  0.81808354  0.44328934  0.02475755    -0.23500
H1785       H  0.81325663  0.31591128  0.52666838     0.05700
H1786       H  0.77404577  0.31394220  0.50436322     0.08900
H1787       H  0.78347199  0.31432614  0.59086362     0.08900
H1788       H  0.83128111  0.45590711  0.97967695     0.08900
H1789       H  0.83024213  0.45513238  0.07064326     0.08900
H1790       H  0.79389582  0.44443688  0.02602430     0.05700
C1791       C  0.64488618  0.43303316  0.11397254    -0.20100
C1792       C  0.62929164  0.40443075  0.08209638    -0.06700
C1793       C  0.59568437  0.39375968  0.07273441     0.14200
C1794       C  0.57865758  0.41176645  0.09551612    -0.20200
C1795       C  0.59413901  0.44071684  0.12712994    -0.06700
C1796       C  0.62805723  0.45149614  0.13570558     0.14100
C1797       C  0.64694643  0.48187511  0.16916003    -0.23500
H1798       H  0.67049426  0.44071886  0.12266494     0.15400
H1799       H  0.55279455  0.40282305  0.08892173     0.15500
C1800       C  0.57739871  0.36266467  0.04141605    -0.23500
H1801       H  0.67199356  0.48450465  0.17914956     0.05700
H1802       H  0.63513946  0.48373139  0.21776510     0.08900
H1803       H  0.64901130  0.50105343  0.13589913     0.08900
H1804       H  0.58104587  0.34441262  0.06980960     0.08900
H1805       H  0.56936509  0.34922260  0.50224596     0.08900
H1806       H  0.55101196  0.35705164  0.04103739     0.05700
C1807       C  0.61252856  0.15672337  0.33489601    -0.20100
C1808       C  0.57944258  0.14480185  0.32196060    -0.06700
C1809       C  0.56544070  0.16464223  0.29898502     0.14200
C1810       C  0.58476961  0.19613169  0.29075393    -0.20200
C1811       C  0.61765782  0.20803339  0.30501704    -0.06700
C1812       C  0.63166776  0.18829961  0.32811185     0.14100
C1813       C  0.66698025  0.20058789  0.34348647    -0.23500
H1814       H  0.62340180  0.14126898  0.35023978     0.15400
H1815       H  0.57425711  0.21170417  0.27408163     0.15500
C1816       C  0.53035758  0.15264939  0.28228120    -0.23500
H1817       H  0.67425844  0.18201284  0.36005377     0.05700
H1818       H  0.67221867  0.21819896  0.38388548     0.08900
H1819       H  0.68175120  0.21130852  0.29807014     0.08900
H1820       H  0.04576804  0.16267201  0.38799350     0.08900
H1821       H  0.52467310  0.13381560  0.24453717     0.08900
H1822       H  0.52365493  0.17098199  0.26221086     0.05700
C1823       C  0.82862499  0.37686918  0.35631692    -0.20100
C1824       C  0.84112507  0.40914207  0.35452928    -0.06700
C1825       C  0.82150620  0.42439498  0.33512119     0.14200
C1826       C  0.79006965  0.40670564  0.31482342    -0.20200
C1827       C  0.77804244  0.37440300  0.31390820    -0.06700
C1828       C  0.79722208  0.35926392  0.33658422     0.14100
C1829       C  0.78545213  0.32464376  0.33869410    -0.23500
H1830       H  0.84389359  0.36528611  0.37093452     0.15400
H1831       H  0.77446669  0.41795932  0.30061657     0.15500
C1832       C  0.83389834  0.45904343  0.33310520    -0.23500
H1833       H  0.80323664  0.31705780  0.31277077     0.05700
H1834       H  0.76194620  0.31279536  0.31443546     0.08900
H1835       H  0.78295880  0.31709158  0.39123558     0.08900
H1836       H  0.85491753  0.46802279  0.29746076     0.08900
H1837       H  0.84120915  0.46886728  0.38366671     0.08900
H1838       H  0.81520506  0.46693674  0.31648197     0.05700
C1839       C  0.54043550  0.37630805  0.26176926    -0.20100
C1840       C  0.55552260  0.40553902  0.29221252    -0.06700
C1841       C  0.58368682  0.41121905  0.32962096     0.14200
C1842       C  0.59507432  0.38778104  0.33580552    -0.20200
C1843       C  0.58061811  0.35912967  0.30409399    -0.06700
C1844       C  0.55292507  0.35328894  0.26626232     0.14100
C1845       C  0.53605869  0.32310904  0.23038433    -0.23500
H1846       H  0.51910065  0.37155942  0.23287042     0.15400
H1847       H  0.61691587  0.39242871  0.36283799     0.15500
C1848       C  0.60327103  0.44168118  0.36245503    -0.23500
H1849       H  0.53795277  0.32710004  0.17566919     0.05700
H1850       H  0.51010389  0.31313536  0.24609851     0.08900
H1851       H  0.54634032  0.30593585  0.24108334     0.08900
H1852       H  0.58781845  0.45008963  0.39406664     0.08900
H1853       H  0.61698737  0.45873527  0.32388300     0.08900
H1854       H  0.62158024  0.43988272  0.39581229     0.05700
C1855       C  0.92738187  0.15625357  0.17119207    -0.20100
C1856       C  0.89514377  0.15031372  0.18430890    -0.06700
C1857       C  0.87078667  0.12074184  0.17066660     0.14200
C1858       C  0.87956680  0.09893737  0.13720507    -0.20200
C1859       C  0.91174527  0.10580113  0.11794573    -0.06700
C1860       C  0.93641770  0.13456782  0.13799938     0.14100
C1861       C  0.97228620  0.14387166  0.12396540    -0.23500
H1862       H  0.94526558  0.17909211  0.18225644     0.15400
H1863       H  0.86091417  0.07704547  0.12291699     0.15500
C1864       C  0.83521974  0.11257315  0.18624425    -0.23500
H1865       H  0.98695617  0.16701173  0.14489737     0.05700
H1866       H  0.97759969  0.14516952  0.06926818     0.08900
H1867       H  0.98059383  0.12733262  0.14751260     0.08900
H1868       H  0.82601521  0.12690441  0.15743192     0.08900
H1869       H  0.83094271  0.11553790  0.24008637     0.08900
H1870       H  0.82027709  0.08816452  0.17328178     0.05700
C1871       C  0.82901791  0.32219981  0.19048082    -0.20100
C1872       C  0.84686697  0.30444731  0.20611283    -0.06700
C1873       C  0.88000578  0.32035455  0.21732810     0.14200
C1874       C  0.89456865  0.35264673  0.21193887    -0.20200
C1875       C  0.87750287  0.37098274  0.19506882    -0.06700
C1876       C  0.84374351  0.35520784  0.18750081     0.14100
C1877       C  0.82323806  0.37319958  0.17946638    -0.23500
H1878       H  0.80335707  0.31031905  0.18262954     0.15400
H1879       H  0.91997476  0.36336891  0.22203972     0.15500
C1880       C  0.90050174  0.30302510  0.23373831    -0.23500
H1881       H  0.79723828  0.35806241  0.17553061     0.05700
H1882       H  0.83145366  0.38791234  0.13565564     0.08900
H1883       H  0.82648409  0.38917178  0.22201763     0.08900
H1884       H  0.89890219  0.28575690  0.19390411     0.08900
H1885       H  0.89190183  0.29122567  0.28218084     0.08900
H1886       H  0.92637076  0.31858040  0.23824551     0.05700
C1887       C  0.68721438  0.16344642  0.18905010    -0.20100
C1888       C  0.70291331  0.14399091  0.20560223    -0.06700
C1889       C  0.68360864  0.11295407  0.22024331     0.14200
C1890       C  0.64990020  0.10259698  0.22167258    -0.20200
C1891       C  0.63377190  0.12088758  0.19993960    -0.06700
C1892       C  0.65296037  0.15213521  0.18552777     0.14100
C1893       C  0.63761512  0.17304128  0.16390855    -0.23500
H1894       H  0.70185189  0.18732058  0.17715772     0.15400
H1895       H  0.63614287  0.07872693  0.23509708     0.15500
C1896       C  0.69822313  0.08961218  0.22781006    -0.23500
H1897       H  0.65554363  0.19664312  0.15222713     0.05700
H1898       H  0.61990734  0.17426325  0.20177631     0.08900
H1899       H  0.62385012  0.16275156  0.12010184     0.08900
H1900       H  0.71052089  0.09372814  0.27497844     0.08900
H1901       H  0.71574610  0.09138575  0.18587212     0.08900
H1902       H  0.67968942  0.06557576  0.22900154     0.05700
C1903       C  0.91287531  0.12477471  0.41272097    -0.20100
C1904       C  0.87961350  0.11193658  0.43257947    -0.06700
C1905       C  0.86645149  0.07982226  0.44606195     0.14200
C1906       C  0.88579215  0.06183311  0.43880189    -0.20200
C1907       C  0.91965278  0.07474641  0.42312489    -0.06700
C1908       C  0.93283267  0.10714966  0.40895447     0.14100
C1909       C  0.96819688  0.12379359  0.39035796    -0.23500
H1910       H  0.91634848  0.14839961  0.92383970     0.15400
H1911       H  0.87443361  0.03746057  0.44982794     0.15500
C1912       C  0.83170688  0.06446004  0.46958299    -0.23500
H1913       H  0.97468983  0.14873036  0.38168600     0.02900
H1914       H  0.97434910  0.11394622  0.34396949     0.08900
H1915       H  0.98330486  0.12184208  0.43087385     0.08900
H1916       H  0.81578054  0.06728417  0.43163580     0.08900
H1917       H  0.82799480  0.07514595  0.51747424     0.08900
H1918       H  0.82454796  0.03941224  0.47809687     0.05700
C1919       C  0.91836244  0.30060061  0.50763448    -0.20100
C1920       C  0.91468084  0.28020683  0.45330402    -0.06700
C1921       C  0.93574208  0.29049260  0.39698839     0.14200
C1922       C  0.95150528  0.32226364  0.38723083    -0.20200
C1923       C  0.94838913  0.34298458  0.43592523    -0.06700
C1924       C  0.93715890  0.33194138  0.50041100     0.14100
C1925       C  0.94297307  0.35256032  0.56072910    -0.23500
H1926       H  0.91373423  0.29296332  0.05008158     0.15400
H1927       H  0.96422192  0.33047358  0.34003822     0.15500
C1928       C  0.94170781  0.26860684  0.34761611    -0.23500
H1929       H  0.92659482  0.34186572  0.09278901     0.05700
H1930       H  0.92001482  0.35451934  0.57603833     0.08900
H1931       H  0.94464268  0.37501421  0.04110942     0.08900
H1932       H  0.93405886  0.27155541  0.29721658     0.08900
H1933       H  0.92894226  0.24418455  0.36294658     0.08900
H1934       H  0.96791389  0.27344334  0.34495879     0.05700
C1935       C  0.69525932  0.11188706  0.00667318    -0.20100
C1936       C  0.71678749  0.10624556  0.45659114    -0.06700
C1937       C  0.71129084  0.08383553  0.40543831     0.14200
C1938       C  0.67936424  0.06209575  0.39606050    -0.20200
C1939       C  0.65498173  0.05860424  0.44526824    -0.06700
C1940       C  0.66491588  0.07405678  0.50694277     0.14100
C1941       C  0.65444305  0.06978478  0.07359456    -0.23500
H1942       H  0.69857181  0.12724416  0.04942420     0.15400
H1943       H  0.67386694  0.04718147  0.35236471     0.15500
C1944       C  0.73951607  0.08016458  0.36886715    -0.23500
H1945       H  0.67329204  0.07133326  0.10869812     0.05700
H1946       H  0.63877970  0.04491040  0.06972697     0.08900
H1947       H  0.64039070  0.08301092  0.09304490     0.08900
H1948       H  0.75531982  0.10143002  0.34268607     0.08900
H1949       H  0.73127221  0.06087051  0.33203229     0.08900
H1950       H  0.75439231  0.07484768  0.40560061     0.05700
C1951       C  0.82268234  0.18498868  0.52941240     0.30200
C1952       C  0.82085828  0.18847321  0.87392307     0.30200
C1953       C  0.83686571  0.16358591  0.48394800    -0.06000
C1954       C  0.78991433  0.17267845  0.49392639    -0.06800
C1955       C  0.84085587  0.21491606  0.48914167    -0.06700
C1956       C  0.83005236  0.16326953  0.91287671    -0.06000
C1957       C  0.79031110  0.18626869  0.92000695    -0.06800
C1958       C  0.84546963  0.21692100  0.91335391    -0.06700
C1959       C  0.84140140  0.14073645  0.89208906    -0.32100
N1960       N  0.85191335  0.12949930  0.94433848     0.14400
C1961       C  0.85133820  0.14255993  0.49686300    -0.32100
H1962       H  0.85482274  0.13531705  0.54558855     0.16400
C1963       C  0.75884197  0.16838892  0.90591013    -0.31100
N1964       N  0.74590498  0.13391177  0.45747754     0.13200
C1965       C  0.76560961  0.14417749  0.50868918    -0.31000
C1966       C  0.87512916  0.23851365  0.89324776    -0.31300
N1967       N  0.88614862  0.25223027  0.45155730     0.13700
H1968       H  0.88301219  0.24408001  0.84179705     0.16300
C1969       C  0.86978188  0.23719496  0.50646382    -0.31300
H1970       H  0.87944759  0.24054948  0.55601526     0.16300
H1971       H  0.76419310  0.13026600  0.55182234     0.16300
H1972       H  0.84200056  0.13295531  0.84179766     0.16400
H1973       H  0.74602398  0.17262334  0.86598704     0.16300
C1974       C  0.81912108  0.18927071  0.77914470     0.30200
C1975       C  0.82073823  0.18995072  0.62284662     0.30200
C1976       C  0.84549277  0.18245239  0.73563393    -0.06000
C1977       C  0.78846764  0.16651851  0.73652879    -0.06800
C1978       C  0.82394503  0.22037381  0.73905333    -0.06700
C1979       C  0.84599433  0.18337159  0.66278159    -0.06000
C1980       C  0.78906052  0.16940605  0.66312140    -0.06800
C1981       C  0.82478197  0.22062406  0.66485188    -0.06700
C1982       C  0.87264444  0.17913347  0.64058786    -0.32100
N1983       N  0.88543815  0.17059149  0.69196847     0.14400
C1984       C  0.87118535  0.17487099  0.74996201    -0.32100
H1985       H  0.87950146  0.17263546  0.79837174     0.16400
C1986       C  0.75745764  0.16463776  0.64792882    -0.31100
N1987       N  0.73697829  0.15263211  0.70020954     0.13200
C1988       C  0.75529670  0.15251996  0.75249343    -0.31000
C1989       C  0.83185543  0.25103884  0.64725892    -0.31300
N1990       N  0.83586739  0.26928757  0.70296916     0.13700
H1991       H  0.83597224  0.25979126  0.59681989     0.16300
C1992       C  0.83119195  0.25102307  0.75799441    -0.31300
H1993       H  0.83500272  0.25981681  0.80870011     0.16300
H1994       H  0.74485901  0.14040459  0.79731337     0.16300
H1995       H  0.88145602  0.18035350  0.58954044     0.16400
H1996       H  0.74993144  0.17155983  0.60280527     0.16300
C1997       C  0.56060460  0.43264522  0.78271352     0.42600
N1998       N  0.52472531  0.45239528  0.77944201     0.01500
C1999       C  0.54991854  0.10211688  0.86718276    -0.06400
H2000       H  0.59949394  0.05325164  0.02104135     0.07000
C2001       C  0.01533322  0.44396328  0.41005285    -0.06700
Co2002     Co  0.55464343  0.02124408  0.79606017     0.74200
N2003       N  0.57912566  0.04408810  0.92473621    -0.25900
Co2004     Co  0.52815522  0.03584605  0.92762316     0.74100
C2005       C  0.04969707  0.45779165  0.42135039     0.42700
N2006       N  0.92562352  0.41457368  0.90373567     0.01100
N2007       N  0.52816877  0.99092483  0.90474651     0.01200
N2008       N  0.58708313  0.09423638  0.80175212    -0.46700
H2009       H  0.60167294  0.48120753  0.79315180     0.07000
N2010       N  0.58987473  0.03574974  0.86816945     0.01500
N2011       N  0.96788528  0.03484379  0.95240628     0.01300
C2012       C  0.92922534  0.05186867  0.93511606     0.42900
N2013       N  0.93743725  0.41295249  0.84322737    -0.25400
C2014       C  0.50322338  0.03873696  0.76233840    -0.06300
N2015       N  0.52892749  0.42621340  0.77925357    -0.46500
N2016       N  0.96189554  0.06005966  0.94020678    -0.46700
C2017       C  0.96439562  0.04206154  0.80471307     0.42600
N2018       N  0.56293395  0.06782346  0.81744770     0.01500
N2019       N  0.91100574  0.45686877  0.81408123    -0.25400
N2020       N  0.55268965  0.47704272  0.78204442    -0.25900
N2021       N  0.90350153  0.45541144  0.87747578     0.01100
H2022       H  0.88632319  0.46859619  0.73350942     0.07000
H2023       H  0.89065907  0.00407355  0.95157145     0.07100
N2024       N  0.54327308  0.07185025  0.86195490    -0.25900
N2025       N  0.98404214  0.46002032  0.91665892    -0.25500
N2026       N  0.97335374  0.49949820  0.76668141     0.01500
C2027       C  0.62977266  0.04693712  0.93213776     0.42900
C2028       C  0.93814817  0.38505466  0.83329939    -0.06800
N2029       N  0.94070649  0.00943455  0.95361031    -0.25500
H2030       H  0.00240728  0.42069799  0.42571887     0.07100
N2031       N  0.62002835  0.03782413  0.86933871    -0.46700
H2032       H  0.95222520  0.37966051  0.79429366     0.07000
C2033       C  0.86240181  0.45965401  0.83506496     0.42700
C2034       C  0.57676828  0.46659246  0.78450423    -0.06300
Co2035     Co  0.95769626  0.45472506  0.79310018     0.73800
N2036       N  0.91881175  0.38864205  0.93695674    -0.46500
C2037       C  0.57983648  0.11731622  0.82901395     0.43000
N2038       N  0.95270231  0.51038421  0.79393963    -0.46500
Co2039     Co  0.93921946  0.46101135  0.94045184     0.73900
C2040       C  0.91586717  0.01847042  0.94551390    -0.06800
C2041       C  0.60261551  0.05078438  0.96819121    -0.06300
N2042       N  0.51198726  0.01509267  0.74887237    -0.25900
N2043       N  0.53729503  0.97586396  0.40193033    -0.46600
H2044       H  0.53414331  0.11195944  0.88958445     0.07000
C2045       C  0.88671213  0.46130797  0.78393381    -0.06800
Cl2046     Cl  0.98623006  0.99408279  0.87568963    -0.49800
C2047       C  0.92610832  0.36895605  0.89616271     0.42800
H2048       H  0.51778627  0.06262923  0.76178619     0.07000
N2049       N  0.87493349  0.45591479  0.89205023    -0.46500
C2050       C  0.56083760  0.45229722  0.64509770     0.42600
N2051       N  0.51761948  0.46351578  0.65693771     0.01500
C2052       C  0.53286896  0.10330217  0.51759842    -0.06400
H2053       H  0.56472942  0.12959106  0.66659233     0.07000
C2054       C  0.92226537  0.53861959  0.74229941    -0.06700
Co2055     Co  0.54182037  0.02531055  0.59145933     0.74200
N2056       N  0.54114339  0.07943493  0.66099131    -0.25900
Co2057     Co  0.49418113  0.06609160  0.61333660     0.74100
C2058       C  0.94861074  0.55976045  0.78202039     0.42700
N2059       N  0.92665747  0.45548021  0.67674720     0.01100
N2060       N  0.45986647  0.05730897  0.69187318     0.01200
N2061       N  0.57348462  0.08789378  0.51248462    -0.46700
H2062       H  0.59313052  0.50364120  0.63642443     0.07000
N2063       N  0.55448017  0.05904217  0.65880528     0.01500
N2064       N  0.96046536  0.06216078  0.56041509     0.01300
C2065       C  0.92459333  0.08156351  0.56847798     0.42900
N2066       N  0.95174166  0.44795694  0.68163723    -0.25400
C2067       C  0.56920787  0.98569751  0.01848619    -0.06300
N2068       N  0.52797921  0.44055083  0.65080258    -0.46500
N2069       N  0.95568878  0.08771579  0.55577780    -0.46700
C2070       C  0.03633318  0.94776383  0.99027679     0.42600
N2071       N  0.54566452  0.06388683  0.52773406     0.01500
N2072       N  0.94070036  0.44941186  0.54784542    -0.25400
N2073       N  0.54275249  0.49074432  0.65513114    -0.25900
N2074       N  0.92778796  0.47012651  0.54434455     0.01100
H2075       H  0.91433795  0.40017292  0.55816941     0.07000
H2076       H  0.88538522  0.03414289  0.59568567     0.07100
N2077       N  0.52208341  0.07370960  0.53224004    -0.25900
N2078       N  0.94025784  0.53551517  0.69001573    -0.25500
N2079       N  0.01996591  0.46785260  0.53894354     0.01500
C2080       C  0.59678453  0.10123435  0.67291530     0.42900
C2081       C  0.94212391  0.41815723  0.69669942    -0.06800
N2082       N  0.93323770  0.03754574  0.56913077    -0.25500
H2083       H  0.90026393  0.52060875  0.76083307     0.07100
N2084       N  0.58573401  0.07068826  0.66711172    -0.46700
H2085       H  0.95765312  0.40601059  0.68587844     0.07000
C2086       C  0.88640131  0.42814719  0.52492764     0.42700
C2087       C  0.57039393  0.48582928  0.65145675    -0.06300
Co2088     Co  0.98404850  0.45922126  0.60642526     0.73800
N2089       N  0.89942944  0.42929229  0.68142217    -0.46500
C2090       C  0.56694367  0.11317843  0.50234387     0.43000
N2091       N  0.01025950  0.43915896  0.02925809    -0.46500
Co2092     Co  0.93322473  0.49902559  0.62224105     0.73900
C2093       C  0.90902099  0.04766921  0.57397819    -0.06800
C2094       C  0.56644513  0.10747515  0.67034142    -0.06300
N2095       N  0.53302070  0.98752195  0.53020024    -0.25900
N2096       N  0.46691403  0.07083322  0.75019623    -0.46600
H2097       H  0.52030119  0.11736972  0.53586401     0.07000
C2098       C  0.91508528  0.42175811  0.53995688    -0.06800
Cl2099     Cl  0.99112947  0.01533314  0.61103798    -0.49800
C2100       C  0.90717465  0.40487447  0.69734883     0.42800
H2101       H  0.59439335  0.99935581  0.02698443     0.07000
N2102       N  0.89754695  0.45870070  0.52663775    -0.46500
C2103       C  0.66406589  0.31678920  0.73088441     0.30200
C2104       C  0.66408108  0.31924555  0.88548691     0.30200
C2105       C  0.63168146  0.31073539  0.77368104    -0.06000
C2106       C  0.67420681  0.29344383  0.77197841    -0.06800
C2107       C  0.68569388  0.34714216  0.77010648    -0.06700
C2108       C  0.63198657  0.31252184  0.84768840    -0.06000
C2109       C  0.67434994  0.29501848  0.84580347    -0.06800
C2110       C  0.68544987  0.34799477  0.84338251    -0.06700
C2111       C  0.60898413  0.32373318  0.86637507    -0.32100
N2112       N  0.59531213  0.32908883  0.81172612     0.14400
C2113       C  0.60698861  0.31910004  0.75695206    -0.32100
H2114       H  0.60119888  0.32229662  0.70681086     0.16400
C2115       C  0.67017876  0.26605088  0.86707199    -0.31100
N2116       N  0.66540817  0.24649641  0.81449868     0.13200
C2117       C  0.66911306  0.26291462  0.75770475    -0.31000
C2118       C  0.71179765  0.37338107  0.86146378    -0.31300
N2119       N  0.72867125  0.38736973  0.80570142     0.13700
H2120       H  0.72078821  0.37865140  0.91154049     0.16300
C2121       C  0.71271839  0.37267129  0.75078087    -0.31300
H2122       H  0.72209633  0.37867295  0.70042530     0.16300
H2123       H  0.66557593  0.25232932  0.70924364     0.16300
H2124       H  0.60688392  0.33289070  0.91538347     0.16400
H2125       H  0.66640673  0.25857113  0.91829104     0.16300
C2126       C  0.66450489  0.32088531  0.97808135     0.30200
C2127       C  0.66432977  0.31758589  0.63697526     0.30200
C2128       C  0.66122096  0.34783503  0.02328252    -0.06000
C2129       C  0.63870124  0.29402728  0.01817891    -0.06800
C2130       C  0.69447641  0.31966846  0.01328932    -0.06700
C2131       C  0.64974952  0.33859970  0.60078516    -0.06000
C2132       C  0.64716035  0.28774435  0.59155764    -0.06800
C2133       C  0.69770631  0.32977855  0.59493270    -0.06700
C2134       C  0.63967295  0.36108262  0.62530819    -0.32100
N2135       N  0.64646545  0.38438717  0.07047135     0.14400
C2136       C  0.65056518  0.37113084  0.01138292    -0.32100
H2137       H  0.64450253  0.37692547  0.96338556     0.16400
C2138       C  0.63745495  0.25654260  0.60423949    -0.31100
N2139       N  0.61180240  0.24564609  0.04734188     0.13200
C2140       C  0.62095115  0.26496799  0.99533975    -0.31000
C2141       C  0.72972606  0.34100345  0.61335669    -0.31300
N2142       N  0.74628771  0.33336362  0.03737620     0.13700
H2143       H  0.73834101  0.34042021  0.66277150     0.16300
C2144       C  0.72521257  0.32786364  0.98766234    -0.31300
H2145       H  0.73183821  0.33369677  0.93638883     0.16300
H2146       H  0.61729798  0.25766035  0.94370372     0.16300
H2147       H  0.63915180  0.36794568  0.67709391     0.16400
H2148       H  0.62551749  0.24500864  0.64968013     0.16300
C2149       C  0.57448112  0.16798428  0.50197402    -0.20100
C2150       C  0.58929414  0.14664242  0.50077513    -0.06700
C2151       C  0.62352453  0.15845395  0.50225202     0.14200
C2152       C  0.64086813  0.19044954  0.51483128    -0.20200
C2153       C  0.62434499  0.20974244  0.53111859    -0.06700
C2154       C  0.59098511  0.19865282  0.52077202     0.14100
C2155       C  0.57255037  0.21922573  0.52928664    -0.23500
H2156       H  0.54922313  0.16068434  0.49117357     0.15400
H2157       H  0.66696977  0.19983693  0.51761040     0.15500
C2158       C  0.64155300  0.13759815  0.49611351    -0.23500
H2159       H  0.54669006  0.20695161  0.51708689     0.05700
H2160       H  0.58319034  0.23943801  0.49586146     0.08900
H2161       H  0.57330670  0.22726961  0.58192424     0.08900
H2162       H  0.63582574  0.12412527  0.44883272     0.08900
H2163       H  0.63457291  0.12146969  0.53873145     0.08900
H2164       H  0.66813486  0.15089339  0.49676699     0.05700
C2165       C  0.83868074  0.37665966  0.53040802    -0.20100
C2166       C  0.85071125  0.40909223  0.53525557    -0.06700
C2167       C  0.82807910  0.42295667  0.55201412     0.14200
C2168       C  0.79513929  0.40428891  0.56236121    -0.20200
C2169       C  0.78355106  0.37230081  0.55824554    -0.06700
C2170       C  0.80587567  0.34748019  0.01825643     0.14100
C2171       C  0.80076328  0.31404459  0.01416992    -0.23500
H2172       H  0.85781374  0.36418558  0.00468143     0.15400
H2173       H  0.77786450  0.41466470  0.57329357     0.15500
C2174       C  0.83757251  0.45732345  0.56104889    -0.23500
H2175       H  0.82399081  0.31120394  0.00610326     0.05700
H2176       H  0.78494027  0.30276135  0.97194486     0.08900
H2177       H  0.78899919  0.30231417  0.06133752     0.08900
H2178       H  0.84804759  0.46948923  0.51355190     0.08900
H2179       H  0.85496575  0.46619895  0.60190551     0.08900
H2180       H  0.81654095  0.46314705  0.57529285     0.05700
C2181       C  0.63109583  0.42519556  0.60667447    -0.20100
C2182       C  0.61430335  0.39497275  0.58403895    -0.06700
C2183       C  0.58043268  0.38414137  0.57891827     0.14200
C2184       C  0.56408617  0.40335795  0.59838005    -0.20200
C2185       C  0.58066400  0.43389965  0.62172198    -0.06700
C2186       C  0.61514582  0.44504034  0.62367494     0.14100
C2187       C  0.63606873  0.47770166  0.64255666    -0.23500
H2188       H  0.65707518  0.43329932  0.61078292     0.15400
H2189       H  0.53799441  0.39423427  0.59557144     0.15500
C2190       C  0.56150181  0.35182345  0.55444060    -0.23500
H2191       H  0.66186228  0.48126695  0.64605566     0.05700
H2192       H  0.62831388  0.48388929  0.69179745     0.08900
H2193       H  0.63514713  0.49339617  0.60323035     0.08900
H2194       H  0.56575871  0.33500859  0.58652563     0.08900
H2195       H  0.58605633  0.36252388  0.98886691     0.08900
H2196       H  0.53511509  0.34627961  0.55525610     0.05700
C2197       C  0.63519522  0.15981448  0.82728734    -0.20100
C2198       C  0.60137227  0.15093447  0.82793614    -0.06700
C2199       C  0.58915602  0.17441968  0.82515405     0.14200
C2200       C  0.61089555  0.20552523  0.82058273    -0.20200
C2201       C  0.64451589  0.21415414  0.81978186    -0.06700
C2202       C  0.65677324  0.19113588  0.82479476     0.14100
C2203       C  0.69257867  0.19976936  0.82700907    -0.23500
H2204       H  0.64485588  0.14215060  0.82926238     0.15400
H2205       H  0.60171981  0.22349398  0.81744631     0.15500
C2206       C  0.55347970  0.16726631  0.82363157    -0.23500
H2207       H  0.69833241  0.17902618  0.82978653     0.05700
H2208       H  0.70220727  0.21444494  0.87168687     0.08900
H2209       H  0.70476264  0.21280954  0.78143539     0.08900
H2210       H  0.01470612  0.14814826  0.83040412     0.08900
H2211       H  0.54178618  0.14901947  0.78585698     0.08900
H2212       H  0.54889155  0.18786254  0.81026343     0.05700
C2213       C  0.81556263  0.41114588  0.84057096    -0.20100
C2214       C  0.82807682  0.44228848  0.82391057    -0.06700
C2215       C  0.80810363  0.45527680  0.79602598     0.14200
C2216       C  0.77507465  0.43665690  0.78889867    -0.20200
C2217       C  0.76272625  0.40531440  0.80590907    -0.06700
C2218       C  0.78383802  0.39209658  0.82771763     0.14100
C2219       C  0.77429568  0.35795688  0.83612727    -0.23500
H2220       H  0.83129207  0.40110523  0.86037310     0.15400
H2221       H  0.75884519  0.44644753  0.77086047     0.15500
C2222       C  0.82147877  0.48859352  0.77547547    -0.23500
H2223       H  0.77909649  0.35348209  0.88772013     0.05700
H2224       H  0.78952844  0.34979493  0.80295759     0.08900
H2225       H  0.74888529  0.34395778  0.82382593     0.08900
H2226       H  0.84051584  0.49257791  0.73560667     0.08900
H2227       H  0.83210286  0.50366052  0.81913015     0.08900
H2228       H  0.80240193  0.49518304  0.75578476     0.05700
C2229       C  0.55191295  0.37830429  0.76340983    -0.20100
C2230       C  0.57224581  0.40748208  0.78832484    -0.06700
C2231       C  0.60008938  0.41018827  0.82259963     0.14200
C2232       C  0.60639745  0.38367925  0.83139544    -0.20200
C2233       C  0.58553776  0.35451936  0.80778712    -0.06700
C2234       C  0.55805526  0.35190310  0.77308276     0.14100
C2235       C  0.53443438  0.32150579  0.74693299    -0.23500
H2236       H  0.53049794  0.37581653  0.73678606     0.15400
H2237       H  0.62828612  0.38577517  0.85544949     0.15500
C2238       C  0.62309194  0.44037031  0.85085590    -0.23500
H2239       H  0.53362353  0.32247704  0.69177283     0.05700
H2240       H  0.50994581  0.31693031  0.76876127     0.08900
H2241       H  0.54067584  0.30184611  0.75979569     0.08900
H2242       H  0.60996122  0.45019037  0.88606154     0.08900
H2243       H  0.63498716  0.45665152  0.80956763     0.08900
H2244       H  0.64250721  0.43750227  0.87891693     0.05700
C2245       C  0.92814956  0.15667484  0.64928595    -0.20100
C2246       C  0.89755027  0.14722090  0.67951796    -0.06700
C2247       C  0.87562519  0.11594442  0.67340076     0.14200
C2248       C  0.88524227  0.09503245  0.63781319    -0.20200
C2249       C  0.91553436  0.10472229  0.60510421    -0.06700
C2250       C  0.93717091  0.13638666  0.61009508     0.14100
C2251       C  0.96899656  0.15014222  0.57155945    -0.23500
H2252       H  0.94377167  0.18101047  0.65108742     0.15400
H2253       H  0.86834503  0.07126848  0.63344690     0.15500
C2254       C  0.84111030  0.10478470  0.69952516    -0.23500
H2255       H  0.98024578  0.17565811  0.57643957     0.05700
H2256       H  0.96502365  0.14503291  0.51782840     0.08900
H2257       H  0.98636670  0.14112765  0.59019355     0.08900
H2258       H  0.82874691  0.11872533  0.67915106     0.08900
H2259       H  0.84068882  0.10589580  0.75447799     0.08900
H2260       H  0.82690427  0.08036157  0.68537184     0.05700
C2261       C  0.83555408  0.32268672  0.69851358    -0.20100
C2262       C  0.85234737  0.30301832  0.70240147    -0.06700
C2263       C  0.88621553  0.31695367  0.70407697     0.14200
C2264       C  0.90252089  0.34931750  0.70176457    -0.20200
C2265       C  0.88654113  0.36975500  0.69796574    -0.06700
C2266       C  0.85220943  0.35563925  0.69718403     0.14100
C2267       C  0.83313408  0.37533711  0.69900949    -0.23500
H2268       H  0.80939434  0.31233978  0.69806301     0.15400
H2269       H  0.92844743  0.35821663  0.70162810     0.15500
C2270       C  0.90525789  0.29721160  0.70921670    -0.23500
H2271       H  0.80679138  0.36155093  0.69522703     0.05700
H2272       H  0.84089646  0.39199344  0.65809769     0.08900
H2273       H  0.83819024  0.38873091  0.74585202     0.08900
H2274       H  0.90029368  0.28066368  0.66677572     0.08900
H2275       H  0.89778797  0.28410214  0.75634288     0.08900
H2276       H  0.93171409  0.31110299  0.70944335     0.05700
C2277       C  0.68613555  0.16090371  0.68112837    -0.20100
C2278       C  0.70173466  0.14139797  0.69881434    -0.06700
C2279       C  0.68219193  0.11022856  0.71124182     0.14200
C2280       C  0.64845734  0.09966961  0.70928639    -0.20200
C2281       C  0.63244481  0.11827165  0.68845305    -0.06700
C2282       C  0.65174828  0.14980763  0.67727487     0.14100
C2283       C  0.63616431  0.17180893  0.66417383    -0.23500
H2284       H  0.70086090  0.18495537  0.67118955     0.15400
H2285       H  0.63453676  0.07558798  0.72067248     0.15500
C2286       C  0.69686344  0.08720716  0.72172001    -0.23500
H2287       H  0.65424625  0.19503608  0.65029254     0.05700
H2288       H  0.62215069  0.17436929  0.70814575     0.08900
H2289       H  0.61818031  0.16229919  0.62569469     0.08900
H2290       H  0.70896594  0.09242967  0.76928174     0.08900
H2291       H  0.71443382  0.08838509  0.68024603     0.08900
H2292       H  0.67842933  0.06316641  0.72474216     0.05700
C2293       C  0.90483076  0.12354448  0.92853113    -0.20100
C2294       C  0.87093292  0.11014311  0.93911248    -0.06700
C2295       C  0.85638849  0.07761997  0.94353088     0.14200
C2296       C  0.87556495  0.05963588  0.93936229    -0.20200
C2297       C  0.90987826  0.07284924  0.93148827    -0.06700
C2298       C  0.92417258  0.10563381  0.92447181     0.14100
C2299       C  0.95990757  0.12211571  0.91198250    -0.23500
H2300       H  0.92367211  0.14918845  0.40164350     0.15400
H2301       H  0.86329107  0.03489723  0.94400004     0.15500
C2302       C  0.82029068  0.06188429  0.95299689    -0.23500
H2303       H  0.96702413  0.14719458  0.90396456     0.02900
H2304       H  0.96703845  0.11217387  0.86660115     0.08900
H2305       H  0.97321933  0.11954825  0.95513506     0.08900
H2306       H  0.80841892  0.06737862  0.91048647     0.08900
H2307       H  0.81245802  0.07008739  0.00023741     0.08900
H2308       H  0.81215098  0.03641979  0.95549394     0.05700
C2309       C  0.92180420  0.30153068  0.00012022    -0.20100
C2310       C  0.92018569  0.28099204  0.94745235    -0.06700
C2311       C  0.93627407  0.29351425  0.88693557     0.14200
C2312       C  0.94038501  0.32364262  0.87136212    -0.20200
C2313       C  0.93152143  0.34169392  0.91888391    -0.06700
C2314       C  0.92692115  0.33198548  0.98650013     0.14100
C2315       C  0.92457675  0.35185308  0.04433628    -0.23500
H2316       H  0.90466073  0.29284370  0.55391774     0.15400
H2317       H  0.94896633  0.33210930  0.82160076     0.15500
C2318       C  0.94879007  0.27507006  0.84009841    -0.23500
H2319       H  0.95140416  0.34241571  0.60168797     0.05700
H2320       H  0.90052998  0.35301855  0.04488323     0.08900
H2321       H  0.96215424  0.37578699  0.55152283     0.08900
H2322       H  0.93818302  0.27236616  0.79036360     0.08900
H2323       H  0.94338644  0.25175091  0.86029205     0.08900
H2324       H  0.97543564  0.28709049  0.83417349     0.05700
C2325       C  0.69420312  0.09988783  0.50976532    -0.20100
C2326       C  0.71785008  0.12007120  0.95327758    -0.06700
C2327       C  0.71788374  0.09666254  0.90773489     0.14200
C2328       C  0.68883822  0.07071600  0.90053938    -0.20200
C2329       C  0.66364430  0.06526922  0.94847730    -0.06700
C2330       C  0.67046417  0.08273128  0.00792605     0.14100
C2331       C  0.64766332  0.06132099  0.57142806    -0.23500
H2332       H  0.70010394  0.11404149  0.55464134     0.15400
H2333       H  0.68622586  0.05455511  0.85965224     0.15500
C2334       C  0.74895148  0.09597877  0.87777246    -0.23500
H2335       H  0.66523868  0.06088417  0.60802418     0.05700
H2336       H  0.63066542  0.03708230  0.56564386     0.08900
H2337       H  0.63493789  0.07576693  0.58988366     0.08900
H2338       H  0.77034077  0.11673138  0.89100068     0.08900
H2339       H  0.74891467  0.09355115  0.82287657     0.08900
H2340       H  0.75242563  0.07586376  0.89816915     0.05700
C2341       C  0.82559395  0.68974360  0.02908337     0.30200
C2342       C  0.82215166  0.68546851  0.37371254     0.30200
C2343       C  0.83085196  0.66248826  0.98631072    -0.06000
C2344       C  0.79505323  0.68726669  0.99210053    -0.06800
C2345       C  0.85111757  0.71610239  0.98636700    -0.06700
C2346       C  0.83636457  0.66282858  0.41020137    -0.06000
C2347       C  0.78980841  0.67691671  0.42042517    -0.06800
C2348       C  0.84266647  0.71493975  0.41494388    -0.06700
C2349       C  0.85035957  0.64207943  0.38796680    -0.32100
N2350       N  0.86075545  0.63020146  0.43967147     0.14400
C2351       C  0.84464780  0.64138934  0.00072668    -0.32100
H2352       H  0.85131952  0.63722266  0.04932657     0.16400
C2353       C  0.75897774  0.65583118  0.40706909    -0.31100
N2354       N  0.74672010  0.65853265  0.95331511     0.13200
C2355       C  0.76599637  0.66342149  0.00466482    -0.31000
C2356       C  0.87124280  0.73831380  0.39557477    -0.31300
N2357       N  0.89690841  0.75251603  0.94787573     0.13700
H2358       H  0.87904883  0.74456094  0.34437795     0.16300
C2359       C  0.88020220  0.73798282  0.00364586    -0.31300
H2360       H  0.88833492  0.74322302  0.05428774     0.16300
H2361       H  0.76221611  0.64565503  0.04094418     0.16300
H2362       H  0.85257950  0.63553668  0.33706148     0.16400
H2363       H  0.74401550  0.65924897  0.37013818     0.16300
C2364       C  0.82165284  0.68966369  0.27924435     0.30200
C2365       C  0.82316602  0.69320758  0.12312735     0.30200
C2366       C  0.85021937  0.68790361  0.23465836    -0.06000
C2367       C  0.79368569  0.66492826  0.23549312    -0.06800
C2368       C  0.82269680  0.72055147  0.24187172    -0.06700
C2369       C  0.85059782  0.68968386  0.16178303    -0.06000
C2370       C  0.79276376  0.66973909  0.16318781    -0.06800
C2371       C  0.82381622  0.72205548  0.16748132    -0.06700
C2372       C  0.87732299  0.68589470  0.13846314    -0.32100
N2373       N  0.89055397  0.67771846  0.18983636     0.14400
C2374       C  0.87670048  0.68194991  0.24818450    -0.32100
H2375       H  0.88462018  0.67894028  0.29640972     0.16400
C2376       C  0.76039606  0.66513337  0.15504960    -0.31100
N2377       N  0.74157857  0.65029794  0.20746207     0.13200
C2378       C  0.76165483  0.64887602  0.25411133    -0.31000
C2379       C  0.83006995  0.75236542  0.15152312    -0.31300
N2380       N  0.83305755  0.76969878  0.20824854     0.13700
H2381       H  0.83486705  0.76172834  0.10151922     0.16300
C2382       C  0.82887125  0.75090692  0.26234152    -0.31300
H2383       H  0.83235821  0.75922669  0.31340940     0.16300
H2384       H  0.75364856  0.63423426  0.29576417     0.16300
H2385       H  0.88378690  0.68415361  0.08646101     0.16400
H2386       H  0.75149726  0.67542473  0.11740783     0.16300
C2387       C  0.53948347  0.92602803  0.28328343     0.42600
N2388       N  0.50412580  0.94707753  0.27558994     0.01500
C2389       C  0.53493192  0.59727943  0.38463613    -0.06400
H2390       H  0.59176045  0.54643183  0.53185213     0.07000
C2391       C  0.99262406  0.93702791  0.91222961    -0.06700
Co2392     Co  0.54255401  0.51989734  0.30941549     0.74200
N2393       N  0.56777076  0.53454265  0.43894429    -0.25900
Co2394     Co  0.51669569  0.52904082  0.44475087     0.74100
C2395       C  0.02743300  0.94959778  0.92140144     0.42700
N2396       N  0.94649096  0.91857228  0.41332687     0.01100
N2397       N  0.51212306  0.48371354  0.41026261     0.01200
N2398       N  0.57157433  0.59166735  0.31349224    -0.46700
H2399       H  0.58075868  0.97401695  0.29415137     0.07000
N2400       N  0.57764716  0.52770336  0.38008714     0.01500
N2401       N  0.98187848  0.53882569  0.44480537     0.01300
C2402       C  0.94131330  0.55395463  0.43030730     0.42900
N2403       N  0.95757300  0.91436748  0.35343910    -0.25400
C2404       C  0.49918491  0.54565874  0.27557512    -0.06300
N2405       N  0.50768905  0.92022253  0.27563822    -0.46500
N2406       N  0.97433615  0.56322918  0.43291526    -0.46700
C2407       C  0.97231895  0.53018098  0.29483947     0.42600
N2408       N  0.55294213  0.56523571  0.34059953     0.01500
N2409       N  0.92607067  0.94715824  0.32105223    -0.25400
N2410       N  0.53271385  0.97074855  0.28101154    -0.25900
N2411       N  0.92140045  0.96306826  0.37101207     0.01100
H2412       H  0.89808741  0.89873914  0.30995472     0.07000
H2413       H  0.90483027  0.50405545  0.43689272     0.07100
N2414       N  0.53357595  0.56820048  0.38690671    -0.25900
N2415       N  0.00191653  0.96858048  0.40955430    -0.25500
N2416       N  0.98555497  0.99362317  0.25430659     0.01500
C2417       C  0.62051762  0.54170131  0.43777046     0.42900
C2418       C  0.95737200  0.88625727  0.34578058    -0.06800
N2419       N  0.95568849  0.51266817  0.44766982    -0.25500
H2420       H  0.97791399  0.91431512  0.92944049     0.07100
N2421       N  0.60882737  0.53273450  0.37597326    -0.46700
H2422       H  0.96666798  0.87803501  0.30230909     0.07000
C2423       C  0.87490482  0.92739513  0.35924867     0.42700
C2424       C  0.55580506  0.95953218  0.28634691    -0.06300
Co2425     Co  0.97437055  0.95215560  0.29642286     0.73800
N2426       N  0.94066791  0.89392345  0.45060050    -0.46500
C2427       C  0.56145200  0.61316788  0.33775450     0.43000
N2428       N  0.96124039  0.00108584  0.27338711    -0.46500
Co2429     Co  0.95639896  0.96759712  0.43590951     0.73900
C2430       C  0.92964080  0.52014138  0.43871837    -0.06800
C2431       C  0.59308751  0.54249816  0.47899242    -0.06300
N2432       N  0.50363056  0.51990172  0.25906056    -0.25900
N2433       N  0.55750898  0.48681716  0.90350806    -0.46600
H2434       H  0.51922392  0.60634193  0.41057347     0.07000
C2435       C  0.89867151  0.92154733  0.31906984    -0.06800
Cl2436     Cl  0.00312503  0.49617487  0.36830086    -0.49800
C2437       C  0.94746793  0.87309195  0.41147790     0.42800
H2438       H  0.51606805  0.56856135  0.26600582     0.07000
N2439       N  0.89067310  0.95376482  0.39125617    -0.46500
C2440       C  0.56910723  0.95807534  0.15229387     0.42600
N2441       N  0.52484667  0.96696381  0.15518653     0.01500
C2442       C  0.53724439  0.60170203  0.01356040    -0.06400
H2443       H  0.57243766  0.63095831  0.17822514     0.07000
C2444       C  0.92239879  0.03019226  0.26632021    -0.06700
Co2445     Co  0.55290995  0.52965428  0.10111354     0.74200
N2446       N  0.54788306  0.58095120  0.16946054    -0.25900
Co2447     Co  0.50260607  0.56811168  0.11366774     0.74100
C2448       C  0.95284835  0.04893449  0.29539613     0.42700
N2449       N  0.91519221  0.95654881  0.18501535     0.01100
N2450       N  0.46702297  0.56066190  0.18626840     0.01200
N2451       N  0.58193986  0.59510533  0.03579909    -0.46700
H2452       H  0.60001586  0.00986121  0.14967882     0.07000
N2453       N  0.56023137  0.55999753  0.17420019     0.01500
N2454       N  0.95486656  0.56165900  0.06814538     0.01300
C2455       C  0.92123930  0.58318626  0.07356333     0.42900
N2456       N  0.94050754  0.94903372  0.18641309    -0.25400
C2457       C  0.55661962  0.47636417  0.51492835    -0.06300
N2458       N  0.53643313  0.94501065  0.15185964    -0.46500
N2459       N  0.95164568  0.58760841  0.05915338    -0.46700
C2460       C  0.05638432  0.45516204  0.49160311     0.42600
N2461       N  0.55624327  0.56813427  0.03941644     0.01500
N2462       N  0.92867312  0.95096223  0.05309751    -0.25400
N2463       N  0.54887233  0.99481891  0.15860886    -0.25900
N2464       N  0.91375979  0.97017246  0.05430975     0.01100
H2465       H  0.90612606  0.90193918  0.05356521     0.07000
H2466       H  0.88047618  0.53772586  0.10680148     0.07100
N2467       N  0.52999578  0.57318125  0.03250919    -0.25900
N2468       N  0.93339947  0.03389683  0.20343332    -0.25500
N2469       N  0.00463530  0.96548807  0.04015262     0.01500
C2470       C  0.60202732  0.60136125  0.19680269     0.42900
C2471       C  0.93133447  0.91867013  0.19142259    -0.06800
N2472       N  0.92697238  0.53810058  0.07870820    -0.25500
H2473       H  0.90551378  0.00828806  0.28535761     0.07100
N2474       N  0.59044120  0.57076316  0.19191645    -0.46700
H2475       H  0.94728536  0.90751957  0.17538889     0.07000
C2476       C  0.87575296  0.92766864  0.02281644     0.42700
C2477       C  0.57716847  0.99129011  0.16126856    -0.06300
Co2478     Co  0.97191869  0.95995645  0.11019392     0.73800
N2479       N  0.88796961  0.93025089  0.18451448    -0.46500
C2480       C  0.57146058  0.61726764  0.01891508     0.43000
N2481       N  0.02723647  0.94612091  0.52705434    -0.46500
Co2482     Co  0.92254158  0.99969056  0.13153676     0.73900
C2483       C  0.90401510  0.54969627  0.08301225    -0.06800
C2484       C  0.57321118  0.60857408  0.18200291    -0.06300
N2485       N  0.54791324  0.49510581  0.03436908    -0.25900
N2486       N  0.46839974  0.57886839  0.23795610    -0.46600
H2487       H  0.51995763  0.61234874  0.01650871     0.07000
C2488       C  0.90534877  0.92315778  0.03818497    -0.06800
Cl2489     Cl  0.98342156  0.51411284  0.11333022    -0.49800
C2490       C  0.89659698  0.90516831  0.18715624     0.42800
H2491       H  0.58254301  0.48819992  0.51736645     0.07000
N2492       N  0.88353087  0.95758378  0.03546592    -0.46500
C2493       C  0.66359276  0.81994961  0.24021348     0.30200
C2494       C  0.66225513  0.82017593  0.39698921     0.30200
C2495       C  0.63465855  0.82329589  0.28273994    -0.06000
C2496       C  0.66373367  0.79107958  0.28063100    -0.06800
C2497       C  0.69083186  0.84573764  0.28055146    -0.06700
C2498       C  0.63417853  0.82409644  0.35660377    -0.06000
C2499       C  0.66004056  0.79053216  0.35482753    -0.06800
C2500       C  0.69110414  0.84350428  0.35411777    -0.06700
C2501       C  0.60749163  0.83039219  0.37488975    -0.32100
N2502       N  0.59324380  0.83489848  0.31950292     0.14400
C2503       C  0.60869281  0.82939493  0.26430651    -0.32100
H2504       H  0.60311611  0.83254180  0.21371604     0.16400
C2505       C  0.63975741  0.76025700  0.36715013    -0.31100
N2506       N  0.63852925  0.74227478  0.31366204     0.13200
C2507       C  0.65326280  0.76042009  0.26094740    -0.31000
C2508       C  0.72283187  0.85103482  0.36509525    -0.31300
N2509       N  0.74145759  0.86513941  0.31218515     0.13700
H2510       H  0.73085355  0.83925197  0.40063525     0.16300
C2511       C  0.72245250  0.86276149  0.26027933    -0.31300
H2512       H  0.73121622  0.87114115  0.21065756     0.16300
H2513       H  0.65506744  0.75185862  0.21118458     0.16300
H2514       H  0.59979099  0.83338012  0.42521373     0.16400
H2515       H  0.62334359  0.75203779  0.40970858     0.16300
C2516       C  0.66551814  0.82232376  0.49289136     0.30200
C2517       C  0.66425000  0.82031898  0.14641516     0.30200
C2518       C  0.64925951  0.84058380  0.53955901    -0.06000
C2519       C  0.65072705  0.79071216  0.53076693    -0.06800
C2520       C  0.69827940  0.83400066  0.53471477    -0.06700
C2521       C  0.66038064  0.84794262  0.11009616    -0.06000
C2522       C  0.63713257  0.79379857  0.10567009    -0.06800
C2523       C  0.69430472  0.82068995  0.09984409    -0.06700
C2524       C  0.65162390  0.87101062  0.13505968    -0.32100
N2525       N  0.62974944  0.87402323  0.58593453     0.14400
C2526       C  0.63745730  0.86304788  0.52716495    -0.32100
H2527       H  0.63589964  0.87197106  0.47887813     0.16400
C2528       C  0.61858831  0.76335802  0.12086603    -0.31100
N2529       N  0.64221619  0.74272212  0.56048031     0.13200
C2530       C  0.65414175  0.76391245  0.51258162    -0.31000
C2531       C  0.72726204  0.82981210  0.11026696    -0.31300
N2532       N  0.74911267  0.85268682  0.57261267     0.13700
H2533       H  0.73842037  0.83389257  0.15804254     0.16300
C2534       C  0.73060448  0.85181138  0.52055303    -0.31300
H2535       H  0.74019061  0.86790545  0.48043801     0.16300
H2536       H  0.66683888  0.76033897  0.46877889     0.16300
H2537       H  0.64923891  0.87626388  0.18732743     0.16400
H2538       H  0.61334132  0.75346696  0.16978975     0.16300
C2539       C  0.56423651  0.66144682  0.07735293    -0.20100
C2540       C  0.58486271  0.65014045  0.04079489    -0.06700
C2541       C  0.61544391  0.67117349  0.01845304     0.14200
C2542       C  0.62319300  0.70300591  0.02659868    -0.20200
C2543       C  0.60125345  0.71395281  0.05873714    -0.06700
C2544       C  0.57203078  0.69295053  0.08625984     0.14100
C2545       C  0.54843808  0.70386582  0.12222677    -0.23500
H2546       H  0.54149513  0.64555229  0.09886895     0.15400
H2547       H  0.64668682  0.71939835  0.00958843     0.15500
C2548       C  0.64073511  0.65982715  0.99341243    -0.23500
H2549       H  0.52640773  0.68430093  0.14017968     0.05700
H2550       H  0.54110077  0.71797583  0.08807418     0.08900
H2551       H  0.55957681  0.71791614  0.16658878     0.08900
H2552       H  0.63104101  0.64194848  0.95435869     0.08900
H2553       H  0.64751851  0.64876352  0.03490937     0.08900
H2554       H  0.66292147  0.67890897  0.97419992     0.05700
C2555       C  0.83465973  0.87296335  0.01094085    -0.20100
C2556       C  0.84120231  0.90448836  0.02228983    -0.06700
C2557       C  0.81441242  0.91276182  0.03869049     0.14200
C2558       C  0.78333007  0.88952884  0.04881614    -0.20200
C2559       C  0.77747673  0.85824417  0.04228966    -0.06700
C2560       C  0.80547235  0.85639207  0.54881637     0.14100
C2561       C  0.79366772  0.82190575  0.54223132    -0.23500
H2562       H  0.85493043  0.86470397  0.51766615     0.15400
H2563       H  0.76308867  0.89567355  0.06250272     0.15500
C2564       C  0.81775077  0.94570948  0.04835623    -0.23500
H2565       H  0.81320252  0.81469602  0.52354012     0.05700
H2566       H  0.77344786  0.81304802  0.50733750     0.08900
H2567       H  0.78472732  0.81124486  0.59180042     0.08900
H2568       H  0.82868704  0.95919279  0.00252933     0.08900
H2569       H  0.83263364  0.95622839  0.09226357     0.08900
H2570       H  0.79397998  0.94727331  0.05808480     0.05700
C2571       C  0.64073898  0.93319476  0.12459155    -0.20100
C2572       C  0.62526769  0.90390183  0.09556327    -0.06700
C2573       C  0.59160476  0.89246363  0.08694989     0.14200
C2574       C  0.57449442  0.91088028  0.10536330    -0.20200
C2575       C  0.58992308  0.94074722  0.13280103    -0.06700
C2576       C  0.62374382  0.95192126  0.14275560     0.14100
C2577       C  0.64238361  0.98306580  0.17344068    -0.23500
H2578       H  0.66638017  0.94131879  0.13334568     0.15400
H2579       H  0.54863169  0.90156786  0.09852069     0.15500
C2580       C  0.57343049  0.86021651  0.06104373    -0.23500
H2581       H  0.66739517  0.98607500  0.18485879     0.05700
H2582       H  0.63038982  0.98597093  0.22099716     0.08900
H2583       H  0.64454195  0.00140471  0.13771452     0.08900
H2584       H  0.57768328  0.84335525  0.09302704     0.08900
H2585       H  0.56714547  0.84543076  0.52038778     0.08900
H2586       H  0.54695653  0.85417705  0.06094790     0.05700
C2587       C  0.61327660  0.65815980  0.34618489    -0.20100
C2588       C  0.58049571  0.64660517  0.33084879    -0.06700
C2589       C  0.56748450  0.66664427  0.30476762     0.14200
C2590       C  0.58740867  0.69808435  0.29691126    -0.20200
C2591       C  0.61998726  0.70964756  0.31390004    -0.06700
C2592       C  0.63301574  0.68957812  0.33930175     0.14100
C2593       C  0.66806945  0.70128428  0.35652540    -0.23500
H2594       H  0.62352957  0.64245560  0.36289588     0.15400
H2595       H  0.57755993  0.71389326  0.27873818     0.15500
C2596       C  0.53294716  0.65484599  0.28400984    -0.23500
H2597       H  0.67458873  0.68249335  0.37474810     0.05700
H2598       H  0.67327107  0.71920590  0.39624923     0.08900
H2599       H  0.68346638  0.71144672  0.31145041     0.08900
H2600       H  0.03531556  0.65752184  0.35717021     0.08900
H2601       H  0.52833718  0.63637577  0.24563784     0.08900
H2602       H  0.52693050  0.67341994  0.26299954     0.05700
C2603       C  0.82562931  0.88073254  0.35787934    -0.20100
C2604       C  0.84016583  0.91270681  0.34966101    -0.06700
C2605       C  0.82271655  0.92855671  0.32212418     0.14200
C2606       C  0.79032107  0.91194985  0.30638590    -0.20200
C2607       C  0.77577258  0.87994529  0.31490304    -0.06700
C2608       C  0.79389611  0.86402787  0.33909481     0.14100
C2609       C  0.78090784  0.82936102  0.34198117    -0.23500
H2610       H  0.83966523  0.86852044  0.37592565     0.15400
H2611       H  0.77608261  0.92386735  0.28810993     0.15500
C2612       C  0.83853738  0.96231880  0.30555728    -0.23500
H2613       H  0.79802271  0.82101289  0.31552939     0.05700
H2614       H  0.75728238  0.81816311  0.31779116     0.08900
H2615       H  0.77828045  0.82195958  0.39466238     0.08900
H2616       H  0.85852477  0.96592514  0.26821439     0.08900
H2617       H  0.84805636  0.97613450  0.35134471     0.08900
H2618       H  0.82131103  0.97076417  0.28356275     0.05700
C2619       C  0.53726588  0.87241515  0.26993584    -0.20100
C2620       C  0.55294027  0.90229878  0.29693227    -0.06700
C2621       C  0.58078874  0.90827757  0.33570815     0.14200
C2622       C  0.59096716  0.88438124  0.34730772    -0.20200
C2623       C  0.57622678  0.85518615  0.31808517    -0.06700
C2624       C  0.54900556  0.84912033  0.27858377     0.14100
C2625       C  0.53221322  0.81852976  0.24423393    -0.23500
H2626       H  0.51624334  0.86741293  0.23987826     0.15400
H2627       H  0.61257398  0.88921210  0.37528667     0.15500
C2628       C  0.60178014  0.93959816  0.36300113    -0.23500
H2629       H  0.53560098  0.82162327  0.18929373     0.05700
H2630       H  0.50594542  0.80951198  0.25680531     0.08900
H2631       H  0.54141604  0.80107356  0.25915143     0.08900
H2632       H  0.58747879  0.94980542  0.39318762     0.08900
H2633       H  0.61518528  0.95486416  0.32129290     0.08900
H2634       H  0.62041503  0.93850154  0.39640283     0.05700
C2635       C  0.93104842  0.65858653  0.16056624    -0.20100
C2636       C  0.89912815  0.65217123  0.17881085    -0.06700
C2637       C  0.87467344  0.62245391  0.16701288     0.14200
C2638       C  0.88294946  0.60053019  0.13292345    -0.20200
C2639       C  0.91474075  0.60733857  0.11093009    -0.06700
C2640       C  0.93957791  0.63676382  0.12654154     0.14100
C2641       C  0.97505518  0.64649326  0.10738649    -0.23500
H2642       H  0.94893633  0.68171770  0.16903949     0.15400
H2643       H  0.86411475  0.57838381  0.12091951     0.15500
C2644       C  0.83932790  0.61417332  0.18516744    -0.23500
H2645       H  0.98985757  0.67047867  0.12364586     0.05700
H2646       H  0.97837246  0.64582873  0.05227721     0.08900
H2647       H  0.98492606  0.63140484  0.13207472     0.08900
H2648       H  0.82960494  0.62849104  0.15775280     0.08900
H2649       H  0.83589534  0.61707303  0.23926688     0.08900
H2650       H  0.82420052  0.58976840  0.17256516     0.05700
C2651       C  0.82886048  0.82098103  0.19489724    -0.20100
C2652       C  0.84716441  0.80351139  0.20890723    -0.06700
C2653       C  0.88039226  0.81977262  0.21883619     0.14200
C2654       C  0.89461509  0.85214249  0.21324330    -0.20200
C2655       C  0.87715197  0.87019561  0.19682830    -0.06700
C2656       C  0.84329728  0.85397288  0.19112729     0.14100
C2657       C  0.82241332  0.87144971  0.18319104    -0.23500
H2658       H  0.80315325  0.80885565  0.18782085     0.15400
H2659       H  0.92013526  0.86310779  0.22199375     0.15500
C2660       C  0.90132851  0.80271259  0.23372422    -0.23500
H2661       H  0.79640949  0.85610477  0.18081700     0.05700
H2662       H  0.83023115  0.88546809  0.13853332     0.08900
H2663       H  0.82602004  0.88793700  0.22462452     0.08900
H2664       H  0.89951625  0.78551804  0.19359218     0.08900
H2665       H  0.89325431  0.79082395  0.28222400     0.08900
H2666       H  0.92717950  0.81846845  0.23718586     0.05700
C2667       C  0.69122395  0.66005692  0.20093900    -0.20100
C2668       C  0.70659000  0.63993995  0.21427415    -0.06700
C2669       C  0.68696759  0.60902077  0.22954664     0.14200
C2670       C  0.65321605  0.59939487  0.23403403    -0.20200
C2671       C  0.63740608  0.61818888  0.21320403    -0.06700
C2672       C  0.65699602  0.64937269  0.19883506     0.14100
C2673       C  0.64219111  0.67078118  0.17724378    -0.23500
H2674       H  0.70612847  0.68385287  0.18889931     0.15400
H2675       H  0.63909195  0.57548291  0.24655680     0.15500
C2676       C  0.70086888  0.58474884  0.22872487    -0.23500
H2677       H  0.66047036  0.69436662  0.16670425     0.05700
H2678       H  0.62439380  0.67210520  0.21484738     0.08900
H2679       H  0.62881793  0.66107355  0.13242045     0.08900
H2680       H  0.71744490  0.58864562  0.26963128     0.08900
H2681       H  0.71432533  0.58556417  0.18062225     0.08900
H2682       H  0.68182604  0.56109829  0.23415728     0.05700
C2683       C  0.91412148  0.62445099  0.41851907    -0.20100
C2684       C  0.88043788  0.61105234  0.43385453    -0.06700
C2685       C  0.86692859  0.57857251  0.44260599     0.14200
C2686       C  0.88665620  0.56089259  0.43721649    -0.20200
C2687       C  0.92081486  0.57426704  0.42518395    -0.06700
C2688       C  0.93409695  0.60690993  0.41419948     0.14100
C2689       C  0.96954060  0.62375362  0.39742827    -0.23500
H2690       H  0.91457262  0.64599549  0.91279855     0.15400
H2691       H  0.87515635  0.53627619  0.44541666     0.15500
C2692       C  0.83129308  0.56246204  0.45813348    -0.23500
H2693       H  0.97606801  0.64878808  0.39006995     0.02900
H2694       H  0.97604607  0.61430266  0.35065666     0.08900
H2695       H  0.98419183  0.62129635  0.43826428     0.08900
H2696       H  0.81747567  0.56652759  0.41732419     0.08900
H2697       H  0.82500759  0.57158875  0.50582156     0.08900
H2698       H  0.82388748  0.53717728  0.46328042     0.05700
C2699       C  0.91924786  0.80022593  0.50508296    -0.20100
C2700       C  0.91658450  0.77985317  0.45128746    -0.06700
C2701       C  0.93695952  0.79085348  0.39429145     0.14200
C2702       C  0.95076156  0.82269841  0.38370202    -0.20200
C2703       C  0.94650697  0.84298474  0.43226183    -0.06700
C2704       C  0.93603469  0.83182455  0.49698045     0.14100
C2705       C  0.94055420  0.85238431  0.55700238    -0.23500
H2706       H  0.91289274  0.79393025  0.05025193     0.15400
H2707       H  0.96301005  0.83118138  0.33624300     0.15500
C2708       C  0.94407465  0.76954752  0.34506875    -0.23500
H2709       H  0.92155561  0.84149001  0.09362526     0.05700
H2710       H  0.91688733  0.85297749  0.57184238     0.08900
H2711       H  0.94129470  0.87531788  0.04484234     0.08900
H2712       H  0.93582962  0.77172920  0.29474898     0.08900
H2713       H  0.93249026  0.74509207  0.36088571     0.08900
H2714       H  0.97052560  0.77562575  0.34203238     0.05700
C2715       C  0.69469854  0.62514616  0.99650474    -0.20100
C2716       C  0.71686873  0.60856991  0.45790161    -0.06700
C2717       C  0.71156387  0.58476507  0.41008956     0.14200
C2718       C  0.67970102  0.56284607  0.40183079    -0.20200
C2719       C  0.65545811  0.56020906  0.45073190    -0.06700
C2720       C  0.66539150  0.57711919  0.51078497     0.14100
C2721       C  0.65577454  0.58657315  0.07150520    -0.23500
H2722       H  0.69753885  0.64242632  0.03518250     0.15400
H2723       H  0.67430233  0.54669301  0.36025635     0.15500
C2724       C  0.73976558  0.57866102  0.38032125    -0.23500
H2725       H  0.67553127  0.59487322  0.10694785     0.05700
H2726       H  0.64482743  0.56115841  0.07761228     0.08900
H2727       H  0.63823073  0.59714458  0.08356509     0.08900
H2728       H  0.75766294  0.59889319  0.35432409     0.08900
H2729       H  0.73168768  0.55864727  0.34529247     0.08900
H2730       H  0.75240230  0.57305858  0.42130784     0.05700
C2731       C  0.82418293  0.68475204  0.52898071     0.30200
C2732       C  0.82372509  0.68942220  0.87337902     0.30200
C2733       C  0.83760923  0.66261539  0.48406817    -0.06000
C2734       C  0.79156035  0.67333827  0.49307603    -0.06800
C2735       C  0.84326538  0.71439788  0.48825985    -0.06700
C2736       C  0.82898198  0.66183871  0.91250784    -0.06000
C2737       C  0.79503378  0.69147947  0.91913925    -0.06800
C2738       C  0.85079084  0.71590170  0.91292497    -0.06700
C2739       C  0.84058080  0.63940002  0.89159930    -0.32100
N2740       N  0.85094810  0.62791489  0.94378453     0.14400
C2741       C  0.85165226  0.64130892  0.49735658    -0.32100
H2742       H  0.85475912  0.63387146  0.54615644     0.16400
C2743       C  0.76323303  0.67754340  0.90389250    -0.31100
N2744       N  0.74632948  0.63586571  0.45777378     0.13200
C2745       C  0.76624191  0.64570727  0.50873430    -0.31000
C2746       C  0.87950953  0.73892671  0.89310472    -0.31300
N2747       N  0.88883752  0.75123508  0.45000427     0.13700
H2748       H  0.88661225  0.74592072  0.84193404     0.16300
C2749       C  0.87248390  0.73633752  0.50515989    -0.31300
H2750       H  0.88214020  0.73985615  0.55472848     0.16300
H2751       H  0.76419771  0.63188118  0.55235933     0.16300
H2752       H  0.84191166  0.63220002  0.84100333     0.16400
H2753       H  0.75251883  0.68345368  0.86238109     0.16300
C2754       C  0.82125153  0.69004143  0.77885571     0.30200
C2755       C  0.82219707  0.68994760  0.62246942     0.30200
C2756       C  0.84607156  0.68116136  0.73527878    -0.06000
C2757       C  0.78945199  0.66880640  0.73726859    -0.06800
C2758       C  0.82787533  0.72133522  0.73817275    -0.06700
C2759       C  0.84634831  0.68169882  0.66244408    -0.06000
C2760       C  0.78990874  0.67096955  0.66360824    -0.06800
C2761       C  0.82839473  0.72126553  0.66395482    -0.06700
C2762       C  0.87303448  0.67737340  0.64059479    -0.32100
N2763       N  0.88596959  0.66922653  0.69232355     0.14400
C2764       C  0.87173057  0.67368508  0.75007691    -0.32100
H2765       H  0.88021147  0.67196147  0.79871607     0.16400
C2766       C  0.75832335  0.66670970  0.64836131    -0.31100
N2767       N  0.73795565  0.65610120  0.70159643     0.13200
C2768       C  0.75624140  0.65658669  0.75407355    -0.31000
C2769       C  0.83604604  0.75174806  0.64598679    -0.31300
N2770       N  0.84048803  0.77015138  0.70154939     0.13700
H2771       H  0.83965085  0.76031383  0.59541725     0.16300
C2772       C  0.83568964  0.75205872  0.75680314    -0.31300
H2773       H  0.83928431  0.76092263  0.80748217     0.16300
H2774       H  0.74503552  0.64706081  0.80049130     0.16300
H2775       H  0.88219218  0.67885386  0.58975610     0.16400
H2776       H  0.75077350  0.67297465  0.60252736     0.16300
C2777       C  0.55595968  0.92894607  0.78314257     0.42600
N2778       N  0.52067942  0.94938214  0.77800853     0.01500
C2779       C  0.55038154  0.60342716  0.87526272    -0.06400
H2780       H  0.60056460  0.55235690  0.02691814     0.07000
C2781       C  0.01289464  0.94510576  0.41012962    -0.06700
Co2782     Co  0.55699189  0.52387391  0.80044616     0.74200
N2783       N  0.58080069  0.54568959  0.93033983    -0.25900
Co2784     Co  0.52970677  0.53656773  0.93344095     0.74100
C2785       C  0.04716332  0.95889686  0.42082610     0.42700
N2786       N  0.92517188  0.91609634  0.90488585     0.01100
N2787       N  0.53066375  0.49229290  0.90754074     0.01200
N2788       N  0.58723613  0.59643739  0.80721082    -0.46700
H2789       H  0.59756573  0.97727927  0.79185824     0.07000
N2790       N  0.59211530  0.53857869  0.87316231     0.01500
N2791       N  0.96762996  0.53331592  0.95130717     0.01300
C2792       C  0.92868996  0.55013655  0.93381303     0.42900
N2793       N  0.93656777  0.91427771  0.84411175    -0.25400
C2794       C  0.50492196  0.54022287  0.76769087    -0.06300
N2795       N  0.52437925  0.92293258  0.77867609    -0.46500
N2796       N  0.96143540  0.55842378  0.93870515    -0.46700
C2797       C  0.96611072  0.54071010  0.80484897     0.42600
N2798       N  0.56391516  0.56976883  0.82396717     0.01500
N2799       N  0.90984004  0.95784132  0.81520615    -0.25400
N2800       N  0.54890439  0.97374515  0.78048140    -0.25900
N2801       N  0.90281207  0.95700666  0.87878818     0.01100
H2802       H  0.88413306  0.96786436  0.73420479     0.07000
H2803       H  0.89037866  0.50226741  0.95107886     0.07100
N2804       N  0.54435219  0.57324252  0.86952760    -0.25900
N2805       N  0.98373209  0.96153906  0.91617081    -0.25500
N2806       N  0.97178807  0.00074989  0.76766637     0.01500
C2807       C  0.63264049  0.55192139  0.93659431     0.42900
C2808       C  0.93720868  0.88635933  0.83426064    -0.06800
N2809       N  0.94053317  0.50782118  0.95266219    -0.25500
H2810       H  0.99973251  0.92220085  0.42818670     0.07100
N2811       N  0.62291893  0.54265346  0.87372249    -0.46700
H2812       H  0.95117228  0.88094950  0.79512210     0.07000
C2813       C  0.86114391  0.96023557  0.83678680     0.42700
C2814       C  0.57255413  0.96283889  0.78402441    -0.06300
Co2815     Co  0.95650405  0.95590189  0.79360349     0.73800
N2816       N  0.91862943  0.89029112  0.93835452    -0.46500
C2817       C  0.57948275  0.61901481  0.83504136     0.43000
N2818       N  0.95116703  0.01163754  0.79516294    -0.46500
Co2819     Co  0.93898668  0.96262070  0.94091701     0.73900
C2820       C  0.91556037  0.51673933  0.94475646    -0.06800
C2821       C  0.60432557  0.55257522  0.97370804    -0.06300
N2822       N  0.51436244  0.51713834  0.75245861    -0.25900
N2823       N  0.53749135  0.47615561  0.40370220    -0.46600
H2824       H  0.53479613  0.61330218  0.89891073     0.07000
C2825       C  0.88508667  0.96143166  0.78507930    -0.06800
Cl2826     Cl  0.98680182  0.49260411  0.87608797    -0.49800
C2827       C  0.92556955  0.87043381  0.89743401     0.42800
H2828       H  0.51902025  0.56428401  0.76803610     0.07000
N2829       N  0.87416803  0.95730960  0.89381052    -0.46500
C2830       C  0.55943030  0.95240699  0.64543436     0.42600
N2831       N  0.51621564  0.96347341  0.65548393     0.01500
C2832       C  0.53383187  0.60440053  0.52503253    -0.06400
H2833       H  0.56445774  0.62972551  0.67447743     0.07000
C2834       C  0.92029200  0.03894725  0.74178010    -0.06700
Co2835     Co  0.54303691  0.52578435  0.59426974     0.74200
N2836       N  0.54196402  0.57962505  0.66571004    -0.25900
Co2837     Co  0.49489276  0.56640860  0.61832548     0.74100
C2838       C  0.94650100  0.06062512  0.78117515     0.42700
N2839       N  0.92606848  0.95656650  0.67731100     0.01100
N2840       N  0.46053262  0.55726840  0.69666669     0.01200
N2841       N  0.57449022  0.58902466  0.51807276    -0.46700
H2842       H  0.59181400  0.00379384  0.63718289     0.07000
N2843       N  0.55586649  0.55964686  0.66230929     0.01500
N2844       N  0.96320201  0.56213819  0.56256217     0.01300
C2845       C  0.92744586  0.58170686  0.57020943     0.42900
N2846       N  0.95166677  0.94985355  0.68218336    -0.25400
C2847       C  0.57323140  0.48717270  0.01905605    -0.06300
N2848       N  0.52661320  0.94056356  0.65029287    -0.46500
N2849       N  0.95861803  0.58782294  0.55834963    -0.46700
C2850       C  0.03691008  0.44667372  0.99074027     0.42600
N2851       N  0.54663775  0.56483443  0.53220447     0.01500
N2852       N  0.94001595  0.95015462  0.54820861    -0.25400
N2853       N  0.54130622  0.99071624  0.65372792    -0.25900
N2854       N  0.92631825  0.97021550  0.54389429     0.01100
H2855       H  0.91513897  0.90092819  0.56036415     0.07000
H2856       H  0.88784983  0.53419292  0.59517343     0.07100
N2857       N  0.52298554  0.57458589  0.53749661    -0.25900
N2858       N  0.93829514  0.03591280  0.68944362    -0.25500
N2859       N  0.01881984  0.96978585  0.53810991     0.01500
C2860       C  0.59752788  0.60226413  0.67873823     0.42900
C2861       C  0.94289930  0.92019283  0.69745668    -0.06800
N2862       N  0.93581739  0.53758787  0.57030996    -0.25500
H2863       H  0.89847998  0.02076121  0.76059755     0.07100
N2864       N  0.58712448  0.57176363  0.67136549    -0.46700
H2865       H  0.95896333  0.90864785  0.68638140     0.07000
C2866       C  0.88565434  0.92725369  0.52606077     0.42700
C2867       C  0.56898732  0.98593014  0.65151920    -0.06300
Co2868     Co  0.98357890  0.96121159  0.60649341     0.73800
N2869       N  0.89935520  0.92993753  0.68235598    -0.46500
C2870       C  0.56793330  0.61447286  0.51004526     0.43000
N2871       N  0.00958023  0.93993035  0.02865039    -0.46500
Co2872     Co  0.93151234  0.99945858  0.62167276     0.73900
C2873       C  0.91167819  0.54780284  0.57446507    -0.06800
C2874       C  0.56678211  0.60782137  0.67645745    -0.06300
N2875       N  0.53392149  0.48780402  0.53223538    -0.25900
N2876       N  0.46743509  0.57087548  0.75488158    -0.46600
H2877       H  0.52123911  0.61820658  0.54472888     0.07000
C2878       C  0.91501472  0.92204845  0.54135675    -0.06800
Cl2879     Cl  0.99254808  0.51380557  0.61208025    -0.49800
C2880       C  0.90799985  0.90607513  0.69839766     0.42800
H2881       H  0.59846375  0.50083303  0.02743612     0.07000
N2882       N  0.89604641  0.95782510  0.52615809    -0.46500
C2883       C  0.66278825  0.81744782  0.74396697     0.30200
C2884       C  0.66247869  0.82033808  0.89877871     0.30200
C2885       C  0.63018322  0.81086542  0.78659855    -0.06000
C2886       C  0.67357878  0.79477733  0.78571782    -0.06800
C2887       C  0.68368722  0.84804086  0.78276014    -0.06700
C2888       C  0.63032728  0.81270801  0.86062778    -0.06000
C2889       C  0.67345253  0.79648499  0.85964419    -0.06800
C2890       C  0.68348362  0.84925535  0.85612940    -0.06700
C2891       C  0.60636034  0.82262507  0.87936383    -0.32100
N2892       N  0.59219803  0.82722715  0.82465697     0.14400
C2893       C  0.60479509  0.81819939  0.76973761    -0.32100
H2894       H  0.59918993  0.82160828  0.71953054     0.16400
C2895       C  0.66904189  0.76753769  0.88126782    -0.31100
N2896       N  0.66453168  0.74796526  0.82884968     0.13200
C2897       C  0.66860074  0.76429162  0.77187287    -0.31000
C2898       C  0.71012402  0.87473825  0.87314103    -0.31300
N2899       N  0.72675103  0.88838011  0.81674375     0.13700
H2900       H  0.71945380  0.88028310  0.92289981     0.16300
C2901       C  0.71062460  0.87328164  0.76245652    -0.31300
H2902       H  0.72003239  0.87849670  0.71185193     0.16300
H2903       H  0.66507852  0.75362368  0.72349626     0.16300
H2904       H  0.60385457  0.83163060  0.92836783     0.16400
H2905       H  0.66483750  0.76012735  0.93248420     0.16300
C2906       C  0.66248018  0.82179894  0.99158427     0.30200
C2907       C  0.66370175  0.81815451  0.64982737     0.30200
C2908       C  0.65889218  0.84867500  0.03683743    -0.06000
C2909       C  0.63681240  0.79473484  0.03222290    -0.06800
C2910       C  0.69264403  0.82104579  0.02670018    -0.06700
C2911       C  0.64945295  0.83923440  0.61313947    -0.06000
C2912       C  0.64644267  0.78835143  0.60421426    -0.06800
C2913       C  0.69730790  0.83007613  0.60813846    -0.06700
C2914       C  0.63834486  0.86101674  0.63731004    -0.32100
N2915       N  0.64291368  0.88434044  0.08444541     0.14400
C2916       C  0.64747715  0.87144584  0.02520668    -0.32100
H2917       H  0.64100421  0.87695339  0.97729219     0.16400
C2918       C  0.63749132  0.75723314  0.61678236    -0.31100
N2919       N  0.60935958  0.74650685  0.06391728     0.13200
C2920       C  0.61873549  0.76541330  0.01085682    -0.31000
C2921       C  0.72937350  0.84019832  0.62658218    -0.31300
N2922       N  0.74453978  0.83597787  0.05086397     0.13700
H2923       H  0.73774297  0.83987921  0.67636586     0.16300
C2924       C  0.72349452  0.82994105  0.00104331    -0.31300
H2925       H  0.73027534  0.83588951  0.94970973     0.16300
H2926       H  0.61534645  0.75756689  0.95951259     0.16300
H2927       H  0.63697915  0.86751429  0.68912270     0.16400
H2928       H  0.62546984  0.74548534  0.66196260     0.16300
C2929       C  0.57524268  0.66925082  0.51251647    -0.20100
C2930       C  0.59017180  0.64798508  0.51020152    -0.06700
C2931       C  0.62439211  0.65989230  0.51195494     0.14200
C2932       C  0.64162810  0.69179699  0.52535739    -0.20200
C2933       C  0.62499590  0.71086646  0.54267055    -0.06700
C2934       C  0.59166435  0.69982255  0.53208442     0.14100
C2935       C  0.57324075  0.72040796  0.54062121    -0.23500
H2936       H  0.54999303  0.66198216  0.50168187     0.15400
H2937       H  0.66772535  0.70122599  0.52832402     0.15500
C2938       C  0.64252959  0.63920443  0.50560706    -0.23500
H2939       H  0.54742420  0.70819450  0.52805786     0.05700
H2940       H  0.58400488  0.74068249  0.50736763     0.08900
H2941       H  0.57382506  0.72832728  0.59332177     0.08900
H2942       H  0.63688651  0.62568614  0.45841459     0.08900
H2943       H  0.63550888  0.62314554  0.54820179     0.08900
H2944       H  0.66908871  0.65259429  0.50638841     0.05700
C2945       C  0.83845875  0.87526576  0.53430012    -0.20100
C2946       C  0.85037722  0.90764038  0.54127018    -0.06700
C2947       C  0.82799064  0.92092375  0.56407829     0.14200
C2948       C  0.79540710  0.90186038  0.57788380    -0.20200
C2949       C  0.78374778  0.86996106  0.57050178    -0.06700
C2950       C  0.80312237  0.84985335  0.02066963     0.14100
C2951       C  0.79710168  0.81649963  0.00893426    -0.23500
H2952       H  0.85437612  0.86624952  0.99646980     0.15400
H2953       H  0.77832216  0.91192884  0.59320541     0.15500
C2954       C  0.83747886  0.95509048  0.57625813    -0.23500
H2955       H  0.81959990  0.81359707  0.99253461     0.05700
H2956       H  0.77905095  0.80672850  0.96954363     0.08900
H2957       H  0.78766712  0.80341203  0.05586945     0.08900
H2958       H  0.84579789  0.96789117  0.52866622     0.08900
H2959       H  0.85657822  0.96363132  0.61389487     0.08900
H2960       H  0.81689997  0.96043453  0.59633457     0.05700
C2961       C  0.62971246  0.92513544  0.61291660    -0.20100
C2962       C  0.61279932  0.89435803  0.59434687    -0.06700
C2963       C  0.57886112  0.88298762  0.59091346     0.14200
C2964       C  0.56256428  0.90253390  0.60689102    -0.20200
C2965       C  0.57926926  0.93372170  0.62577614    -0.06700
C2966       C  0.61374811  0.94513011  0.62735496     0.14100
C2967       C  0.63463314  0.97817870  0.64308526    -0.23500
H2968       H  0.65576780  0.93351839  0.61590725     0.15400
H2969       H  0.53642813  0.89314897  0.60500620     0.15500
C2970       C  0.55987434  0.84984109  0.57190142    -0.23500
H2971       H  0.66050478  0.98201170  0.64649116     0.05700
H2972       H  0.62712337  0.98535108  0.69162348     0.08900
H2973       H  0.63332729  0.99284193  0.60201501     0.08900
H2974       H  0.56475547  0.83441547  0.60692740     0.08900
H2975       H  0.58169836  0.85816131  0.00897322     0.08900
H2976       H  0.53343480  0.84406210  0.57344976     0.05700
C2977       C  0.63447622  0.66133454  0.83580559    -0.20100
C2978       C  0.60071159  0.65248219  0.83503257    -0.06700
C2979       C  0.58835476  0.67585819  0.83317181     0.14200
C2980       C  0.60996529  0.70703545  0.83410191    -0.20200
C2981       C  0.64361906  0.71567054  0.83365026    -0.06700
C2982       C  0.65597326  0.69262441  0.83550801     0.14100
C2983       C  0.69180476  0.70118080  0.83660849    -0.23500
H2984       H  0.64415872  0.64365243  0.83665895     0.15400
H2985       H  0.60064215  0.72494621  0.83196038     0.15500
C2986       C  0.55311278  0.66916080  0.82388749    -0.23500
H2987       H  0.69758475  0.68039090  0.83770093     0.05700
H2988       H  0.70170476  0.71540131  0.88172763     0.08900
H2989       H  0.70373132  0.71464524  0.79133797     0.08900
H2990       H  0.01687742  0.64811208  0.84529583     0.08900
H2991       H  0.53871581  0.64491182  0.80974681     0.08900
H2992       H  0.55087252  0.68332715  0.78235089     0.05700
C2993       C  0.81436720  0.91163600  0.84394138    -0.20100
C2994       C  0.82669892  0.94279161  0.82725290    -0.06700
C2995       C  0.80625321  0.95595924  0.80229294     0.14200
C2996       C  0.77303480  0.93750808  0.79794795    -0.20200
C2997       C  0.76082322  0.90622814  0.81541648    -0.06700
C2998       C  0.78218612  0.89279699  0.83453036     0.14100
C2999       C  0.77225538  0.85866537  0.84408905    -0.23500
H3000       H  0.83036227  0.90157749  0.86233574     0.15400
H3001       H  0.75654181  0.94739535  0.78180965     0.15500
C3002       C  0.81934858  0.98932239  0.78210587    -0.23500
H3003       H  0.78671679  0.84999685  0.80987141     0.05700
H3004       H  0.74655303  0.84486592  0.83380937     0.08900
H3005       H  0.77751147  0.85447993  0.89555752     0.08900
H3006       H  0.83763487  0.99331695  0.74064828     0.08900
H3007       H  0.83084699  0.00429099  0.82532117     0.08900
H3008       H  0.79993600  0.99604154  0.76474496     0.05700
C3009       C  0.54670063  0.87395505  0.77328962    -0.20100
C3010       C  0.56709132  0.90379342  0.79473458    -0.06700
C3011       C  0.59495775  0.90746268  0.83025332     0.14200
C3012       C  0.60145161  0.88137521  0.84273975    -0.20200
C3013       C  0.58109328  0.85176586  0.82081550    -0.06700
C3014       C  0.55331395  0.84803781  0.78598802     0.14100
C3015       C  0.53018510  0.81698101  0.76203828    -0.23500
H3016       H  0.52517051  0.87065299  0.74622803     0.15400
H3017       H  0.62346047  0.88422114  0.86729984     0.15500
C3018       C  0.61822305  0.93829170  0.85511812    -0.23500
H3019       H  0.52979867  0.81668110  0.70668578     0.05700
H3020       H  0.50552478  0.81269810  0.78217044     0.08900
H3021       H  0.53658162  0.79786020  0.77835241     0.08900
H3022       H  0.60536768  0.94922877  0.88809286     0.08900
H3023       H  0.63032207  0.95327982  0.81198212     0.08900
H3024       H  0.63753528  0.93609535  0.88476240     0.05700
C3025       C  0.92976658  0.65592267  0.65393629    -0.20100
C3026       C  0.89852172  0.64615227  0.68093054    -0.06700
C3027       C  0.87688745  0.61492057  0.67324805     0.14200
C3028       C  0.88710651  0.59446940  0.63757261    -0.20200
C3029       C  0.91806265  0.60446886  0.60765768    -0.06700
C3030       C  0.93981919  0.63593308  0.61609949     0.14100
C3031       C  0.97311267  0.64976886  0.58332894    -0.23500
H3032       H  0.94532672  0.68022095  0.65763544     0.15400
H3033       H  0.87021654  0.57083355  0.63108914     0.15500
C3034       C  0.84214608  0.60340699  0.69812798    -0.23500
H3035       H  0.98482513  0.67509399  0.59154346     0.05700
H3036       H  0.97138520  0.64608047  0.52869212     0.08900
H3037       H  0.98902292  0.63955967  0.60431504     0.08900
H3038       H  0.82971036  0.61707138  0.67679344     0.08900
H3039       H  0.84125091  0.60472337  0.75313211     0.08900
H3040       H  0.82834738  0.57889406  0.68404954     0.05700
C3041       C  0.83844207  0.82277213  0.69918502    -0.20100
C3042       C  0.85615812  0.80389280  0.70089796    -0.06700
C3043       C  0.88997715  0.81863601  0.70211796     0.14200
C3044       C  0.90536788  0.85108741  0.70012575    -0.20200
C3045       C  0.88840507  0.87077718  0.69825444    -0.06700
C3046       C  0.85411371  0.85577349  0.69937661     0.14100
C3047       C  0.83402116  0.87444717  0.70589811    -0.23500
H3048       H  0.81229270  0.81173216  0.69990373     0.15400
H3049       H  0.93132767  0.86063174  0.69895179     0.15500
C3050       C  0.90988259  0.79969079  0.70705467    -0.23500
H3051       H  0.80779397  0.85993532  0.70330107     0.05700
H3052       H  0.84057925  0.89169720  0.66623294     0.08900
H3053       H  0.83920566  0.88692562  0.75398925     0.08900
H3054       H  0.90556662  0.78339383  0.66428091     0.08900
H3055       H  0.90248159  0.78626140  0.75377422     0.08900
H3056       H  0.93619259  0.81419189  0.70810118     0.05700
C3057       C  0.68625179  0.66343380  0.68549035    -0.20100
C3058       C  0.70262515  0.64441858  0.70178499    -0.06700
C3059       C  0.68371120  0.61337592  0.71743246     0.14200
C3060       C  0.64979619  0.60214977  0.71640329    -0.20200
C3061       C  0.63306648  0.62006593  0.69516157    -0.06700
C3062       C  0.65172701  0.65178037  0.68392103     0.14100
C3063       C  0.63542786  0.67344333  0.67311743    -0.23500
H3064       H  0.70047405  0.68754347  0.67503471     0.15400
H3065       H  0.63628576  0.57806811  0.72841178     0.15500
C3066       C  0.69931313  0.59100330  0.72898375    -0.23500
H3067       H  0.65309106  0.69686540  0.65938739     0.05700
H3068       H  0.62195430  0.67579999  0.71805013     0.08900
H3069       H  0.61692370  0.66393709  0.63558468     0.08900
H3070       H  0.71404725  0.59760686  0.77369188     0.08900
H3071       H  0.71512861  0.59086456  0.68510015     0.08900
H3072       H  0.68113567  0.56709270  0.73660207     0.05700
C3073       C  0.90339781  0.62140783  0.92193094    -0.20100
C3074       C  0.86996606  0.60846237  0.93847973    -0.06700
C3075       C  0.85598724  0.57630122  0.95009321     0.14200
C3076       C  0.87506307  0.55818052  0.94442014    -0.20200
C3077       C  0.90905587  0.57103475  0.93042183    -0.06700
C3078       C  0.92287817  0.60356694  0.91879343     0.14100
C3079       C  0.95837996  0.62009190  0.90380162    -0.23500
H3080       H  0.92509928  0.64913105  0.41054940     0.15400
H3081       H  0.86314946  0.53374111  0.95406233     0.15500
C3082       C  0.82066502  0.56113096  0.96955237    -0.23500
H3083       H  0.96513533  0.64505100  0.89486304     0.02900
H3084       H  0.96522719  0.61002236  0.85841833     0.08900
H3085       H  0.97235012  0.61808828  0.94634554     0.08900
H3086       H  0.80600908  0.56464073  0.92972195     0.08900
H3087       H  0.81584719  0.57148309  0.01698988     0.08900
H3088       H  0.81290254  0.53594042  0.97711764     0.05700
C3089       C  0.92157869  0.80293217  0.00085437    -0.20100
C3090       C  0.92212539  0.78301919  0.94838012    -0.06700
C3091       C  0.93853280  0.79625565  0.88861957     0.14200
C3092       C  0.94171027  0.82614625  0.87332682    -0.20200
C3093       C  0.93133848  0.84337274  0.92026708    -0.06700
C3094       C  0.92567452  0.83312760  0.98747282     0.14100
C3095       C  0.92120419  0.85212967  0.04498912    -0.23500
H3096       H  0.90599428  0.79209708  0.55165413     0.15400
H3097       H  0.95088872  0.83505583  0.82412423     0.15500
C3098       C  0.95264165  0.77889962  0.84241149    -0.23500
H3099       H  0.94973976  0.84301738  0.59807437     0.05700
H3100       H  0.89722980  0.85329321  0.04188643     0.08900
H3101       H  0.95885908  0.87604871  0.54811301     0.08900
H3102       H  0.94259148  0.77596019  0.79210611     0.08900
H3103       H  0.94815930  0.75573380  0.86233962     0.08900
H3104       H  0.97913881  0.79198943  0.83792148     0.05700
C3105       C  0.69439231  0.60332305  0.51104766    -0.20100
C3106       C  0.71897366  0.63062093  0.94746800    -0.06700
C3107       C  0.71994837  0.60523217  0.90958119     0.14200
C3108       C  0.69127094  0.57867962  0.90482995    -0.20200
C3109       C  0.66543328  0.57462700  0.95009939    -0.06700
C3110       C  0.67042872  0.59590294  0.00320740     0.14100
C3111       C  0.64912721  0.56520674  0.57663552    -0.23500
H3112       H  0.70040920  0.61843044  0.55448338     0.15400
H3113       H  0.68974851  0.56045335  0.86949504     0.15500
C3114       C  0.75157802  0.60352290  0.88672283    -0.23500
H3115       H  0.66744921  0.56654376  0.61315911     0.05700
H3116       H  0.63309530  0.54050630  0.57343127     0.08900
H3117       H  0.63560478  0.57905118  0.59405901     0.08900
H3118       H  0.76688197  0.62303064  0.85523613     0.08900
H3119       H  0.74758844  0.58185118  0.85848348     0.08900
H3120       H  0.76552376  0.60378861  0.93140681     0.05700
loop_ 
_geom_bond_atom_site_label_1 
_geom_bond_atom_site_label_2 
_geom_bond_distance 
_geom_bond_site_symmetry_2 
_ccdc_geom_bond_type 
C1            C3   1.635   1_554  S
C1            C5   1.551   1_554  S
C1            C4   1.551   1_554  S
C1           C25   1.885       .  S
C2            C6   1.634       .  S
C2            C8   1.582       .  S
C2            C7   1.591       .  S
C2           C24   1.901       .  S
C3           C11   1.416       .  A
C3          C396   1.482       .  A
C4           C15   1.385   1_556  A
C4          C397   1.479       .  A
C5           C19   1.364   1_556  A
C5          C398   1.470       .  A
C6            C9   1.406       .  A
C6          C393   1.482       .  A
C7           C13   1.368       .  A
C7          C394   1.478       .  A
C8           C16   1.373       .  A
C8          C395   1.472       .  A
C9           N10   1.366       .  A
C9           H22   1.074       .  S
N10         C401   1.369       .  A
N10         C344   1.483       .  S
C11         N400   1.370       .  A
C11          H12   1.076   1_556  S
C13         N404   1.341       .  A
C13          H23   1.071       .  S
N14          C15   1.334   1_556  A
N14         C403   1.347       .  A
N14         C766   1.439       .  S
C15          H21   1.081       .  S
C16         N407   1.365       .  A
C16          H18   1.080       .  S
N17          C19   1.349   1_556  A
N17         C406   1.359       .  A
N17         C750   1.435       .  S
C19          H20   1.082       .  S
C24          C26   1.566       .  S
C24          C28   1.621       .  S
C24          C27   1.635       .  S
C25          C29   1.549       .  S
C25          C31   1.608       .  S
C25          C30   1.581       .  S
C26          C34   1.375       .  A
C26          C29   1.458       .  A
C27          C38   1.404       .  A
C27          C30   1.476       .  A
C28          C42   1.396       .  A
C28          C31   1.486       .  A
C29          C32   1.354       .  A
C30          C36   1.401       .  A
C31          C39   1.392       .  A
C32          N33   1.345       .  A
C32          H45   1.076       .  S
N33          C34   1.350       .  A
N33         C296   1.422       .  S
C34          H35   1.076       .  S
C36          N37   1.348       .  A
C36          H46   1.079       .  S
N37          C38   1.362       .  A
N37         C328   1.470       .  S
C38          H44   1.065       .  S
C39          N40   1.366       .  A
C39          H41   1.081       .  S
N40          C42   1.371       .  A
N40         C312   1.465       .  S
C42          H43   1.082       .  S
C47          N65   1.343       .  A
C47          C84   1.476       .  S
C47         C280   1.490       .  S
N48          N65   1.324       .  A
N48          N70   1.336       .  A
N48       Co1645   2.122   1_455  S
C49          N74   1.344       .  A
C49          H94   1.070       .  S
C49          C87   1.451       .  S
H50          C91   1.071       .  S
C51         N465   1.373       .  A
C51          H80   1.071       .  S
C51          C55   1.452       .  S
Co52         N60   2.088       .  S
Co52         N92   2.086       .  S
Co52         N68   2.085       .  S
Co52        N850   2.164   1_545  S
Co52      Cl1656   2.546   1_545  S
N53          C91   1.326       .  A
N53          N60   1.328       .  A
N53         Co54   2.179       .  S
Co54         N57   2.252   1_545  S
Co54         N74   2.075       .  S
Co54       N1621   2.196   1_455  S
Co54      Cl1656   2.372   1_545  S
C55        N2433   1.335       .  A
C55        C1290   1.468       .  S
N56          N63   1.316       .  A
N56          N86   1.325       .  A
N56         Co89   2.145       .  S
N57        N2415   1.311       .  A
N57         N483   1.351       .  A
N58          C87   1.352       .  A
N58          N68   1.327       .  A
H59          C84   1.077       .  S
N60          N81   1.324       .  A
N61          N79   1.332       .  A
N61          N66   1.350       .  A
N61       Co1614   2.179       .  S
C62          N66   1.374       .  A
C62          C90   1.466       .  S
C62         C347   1.566       .  S
N63          C78   1.341       .  A
N63         Co85   2.084       .  S
C64          N92   1.341       .  A
C64          H98   1.058       .  S
C64        C1627   1.420   1_455  S
C67         N868   1.331       .  A
C67        C1624   1.449       .  S
C67         C888   1.494       .  S
N68          N74   1.298       .  A
N69          C95   1.359       .  A
N69          N71   1.297       .  A
N69         Co85   2.169       .  S
N70          C84   1.359       .  A
N70        Co832   2.168       .  S
N71          N99   1.318       .  A
N71         Co89   2.020       .  S
H72          C95   1.077       .  S
H73          C90   1.071   1_565  S
N75         C441   1.365       .  A
N75        N2397   1.312       .  A
N75         Co89   2.078       .  S
N76          N88   1.323       .  A
N76        N2432   1.317       .  A
N76         Co85   2.024       .  S
C77          N81   1.354       .  A
C77          C91   1.461       .  S
C77         C379   1.469       .  S
C78          H82   1.075       .  S
C78          C97   1.458       .  S
N79          C90   1.363       .  A
N79        Co869   2.195   1_545  S
C83          N99   1.339       .  A
C83          C95   1.449       .  S
C83         C264   1.459       .  S
Co85       N1608   2.180       .  S
Co85       Cl876   2.421       .  S
N86          C97   1.349       .  A
C87         C248   1.508       .  S
N88         C847   1.331       .  A
Co89        N859   2.189       .  S
Co89       Cl876   2.410       .  S
N92        N2416   1.326   1_445  A
N93        C2395   1.334       .  A
N93         N447   1.326       .  A
Cl96      Co1612   2.591   1_565  S
Cl96       Co865   2.421       .  S
Cl96      Co1614   2.247   1_565  S
Cl96       Co869   2.410       .  S
C97         C363   1.486       .  S
C100        N118   1.360       .  A
C100        C137   1.473       .  S
C100        C235   1.530       .  S
N101        N118   1.340       .  A
N101        N123   1.335       .  A
N101      Co1698   2.134   1_455  S
C102        N127   1.321       .  A
C102        H147   1.080       .  S
C102        C140   1.438       .  S
H103        C144   1.081       .  S
C104        N128   1.339       .  A
C104        H133   1.077       .  S
C104        C108   1.463       .  S
Co105       N113   1.985       .  S
Co105       N145   2.059   1_545  S
Co105       N121   2.193       .  S
Co105       N903   2.070   1_545  S
Co105     Cl1709   2.476   1_455  S
N106        C144   1.379       .  A
N106        N113   1.320       .  A
N106       Co107   2.212   1_455  S
Co107       N110   2.081       .  S
Co107       N127   1.960   1_655  S
Co107      N1674   2.012       .  S
Co107     Cl1709   2.438       .  S
C108       N2486   1.340       .  A
C108        C847   1.499       .  S
N109        N116   1.318       .  A
N109        N139   1.355       .  A
N109       Co142   2.256       .  S
N110        N146   1.303       .  A
N110       N2468   1.341       .  A
N111        C140   1.357       .  A
N111        N121   1.344       .  A
H112        C137   1.072       .  S
N113        N134   1.310       .  A
N114        N132   1.329       .  A
N114        N119   1.311       .  A
N114      Co1667   2.040       .  S
C115        N119   1.327       .  A
C115        C143   1.478       .  S
C115        C299   1.479       .  S
N116        C131   1.335       .  A
N116       Co138   1.975       .  S
C117        N535   1.355       .  A
C117        H151   1.079   1_565  S
C117       C1680   1.457       .  S
C120        N921   1.330       .  A
C120       C1225   1.465       .  S
C120       C1677   1.469       .  S
N121        N127   1.317       .  A
N122        C148   1.370       .  A
N122        N124   1.324       .  A
N122       Co138   2.201       .  S
N123        C137   1.352       .  A
N123       Co885   2.077       .  S
N124        N152   1.310       .  A
N124       Co142   2.009       .  S
H125        C148   1.078       .  S
H126        C143   1.081       .  S
N128       N2450   1.337       .  A
N128       Co142   2.103       .  S
N129        N531   1.325       .  A
N129       N2485   1.328       .  A
N129       Co138   1.982       .  S
C130        N134   1.331       .  A
C130        C144   1.512       .  S
C130        C331   1.531       .  S
C131        H135   1.078       .  S
C131        C150   1.443       .  S
N132        C143   1.355       .  A
N132       Co922   2.097   1_545  S
C136        N152   1.325       .  A
C136        C148   1.485       .  S
C136        C216   1.511       .  S
Co138      N1661   2.110       .  S
Co138      Cl929   2.447       .  S
N139        C150   1.376       .  A
C140        C200   1.497       .  S
N141        C900   1.329       .  A
N141        N519   1.324       .  A
Co142       N912   2.079       .  S
Co142      Cl929   2.480       .  S
N145        C507   1.361       .  A
N145       N2469   1.325       .  A
N146       C2448   1.332       .  A
Cl149     Co1665   2.403       .  S
Cl149     Co1667   2.445       .  S
Cl149      Co918   2.435   1_545  S
Cl149      Co922   2.354   1_545  S
C150        C315   1.545       .  S
C153        C155   1.590       .  S
C153        C157   1.588       .  S
C153        C156   1.606       .  S
C153        C177   1.881       .  S
C154        C158   1.575       .  S
C154        C160   1.562       .  S
C154        C159   1.579       .  S
C154        C176   1.853       .  S
C155        C163   1.375       .  A
C155        C158   1.481       .  A
C156        C167   1.394       .  A
C156        C159   1.478       .  A
C157        C171   1.381       .  A
C157        C160   1.467       .  A
C158        C161   1.374       .  A
C159        C165   1.379       .  A
C160        C168   1.368       .  A
C161        N162   1.354       .  A
C161        H174   1.079       .  S
N162        C163   1.352       .  A
N162        C283   1.437       .  S
C163        H164   1.076       .  S
C165        N166   1.350       .  A
C165        H175   1.078       .  S
N166        C167   1.360       .  A
N166        C251   1.448       .  S
C167        H173   1.070       .  S
C168        N169   1.353       .  A
C168        H170   1.083       .  S
N169        C171   1.356       .  A
N169        C267   1.430       .  S
C171        H172   1.077       .  S
C176        C178   1.591       .  S
C176        C180   1.567       .  S
C176        C179   1.559       .  S
C177        C181   1.588       .  S
C177        C183   1.595       .  S
C177        C182   1.592       .  S
C178        C186   1.389       .  A
C178        C571   1.473       .  A
C179        C190   1.369       .  A
C179        C572   1.475       .  A
C180        C194   1.364       .  A
C180        C573   1.469       .  A
C181        C184   1.383       .  A
C181        C568   1.477       .  A
C182        C188   1.385       .  A
C182        C569   1.472       .  A
C183        C191   1.390       .  A
C183        C570   1.481       .  A
C184        N575   1.354       .  A
C184        H197   1.081       .  S
N185        C186   1.364       .  A
N185        C574   1.355       .  A
N185        C622   1.447       .  S
C186        H187   1.080       .  S
C188        N579   1.359       .  A
C188        H198   1.079       .  S
N189        C190   1.346       .  A
N189        C578   1.356       .  A
N189        C593   1.435       .  S
C190        H196   1.080       .  S
C191        N582   1.357       .  A
C191        H193   1.082       .  S
N192        C194   1.351       .  A
N192        C581   1.366       .  A
N192        C609   1.446       .  S
C194        H195   1.070       .  S
C199        C200   1.409       .  A
C199        C204   1.390       .  A
C199        H206   1.080   1_554  S
C200        C201   1.417       .  A
C201        C208   1.503   1_554  S
C201        C202   1.419       .  A
C202        C203   1.410       .  A
C202        H207   1.083       .  S
C203        C204   1.405       .  A
C203        N579   1.436       .  S
C204        C205   1.510       .  S
C205        H209   1.111       .  S
C205        H210   1.108   1_554  S
C205        H211   1.109       .  S
C208        H212   1.109       .  S
C208        H213   1.107   1_556  S
C208        H214   1.111       .  S
C215        C216   1.409       .  A
C215        C610   1.420       .  A
C215        H612   1.084       .  S
C216        C217   1.440       .  A
C217        C224   1.514       .  S
C217        C218   1.404       .  A
C218        C219   1.389       .  A
C218        H223   1.084       .  S
C219        C610   1.415       .  A
C219        N582   1.446       .  S
C220        C221   1.502       .  S
C220        C605   1.418       .  A
C220        C609   1.410       .  A
C221        H225   1.111       .  S
C221        H226   1.110       .  S
C221        H227   1.110       .  S
H222        C605   1.081       .  S
C224        H228   1.110       .  S
C224        H229   1.111       .  S
C224        H230   1.111       .  S
C231        C232   1.398       .  A
C231        C236   1.417       .  A
C231        H238   1.083       .  S
C232        C233   1.412       .  A
C232        N575   1.454       .  S
C233        C240   1.504       .  S
C233        C234   1.418       .  A
C234        C235   1.415       .  A
C234        H239   1.083       .  S
C235        C236   1.431       .  A
C236        C237   1.502       .  S
C237        H241   1.111       .  S
C237        H242   1.106       .  S
C237        H243   1.106       .  S
C240        H244   1.110       .  S
C240        H246   1.111       .  S
C240        H635   1.110       .  S
H245        C630   1.108       .  S
C247        C248   1.414       .  A
C247        C252   1.417       .  A
C247        H254   1.084       .  S
C248        C249   1.423       .  A
C249        C256   1.506       .  S
C249        C250   1.409       .  A
C250        C251   1.402       .  A
C250        H255   1.084       .  S
C251        C252   1.408       .  A
C252        C253   1.502       .  S
C253        H257   1.110       .  S
C253        H258   1.110       .  S
C253        H259   1.110       .  S
C256        H261   1.110       .  S
C256        H262   1.111       .  S
C256       H1820   1.108       .  S
H260       C1816   1.101       .  S
C263        C264   1.393       .  A
C263        C268   1.386       .  A
C263        H270   1.086       .  S
C264        C265   1.411       .  A
C265        C272   1.505       .  S
C265        C266   1.409       .  A
C266        C267   1.404       .  A
C266        H271   1.083       .  S
C267        C268   1.414       .  A
C268        C269   1.505       .  S
C269        H273   1.106       .  S
C269        H274   1.105       .  S
C269        H275   1.106       .  S
C272        H276   1.110       .  S
C272        H277   1.110       .  S
C272        H278   1.111       .  S
C279        C280   1.413       .  A
C279        C284   1.401       .  A
C279        H286   1.084       .  S
C280        C281   1.416       .  A
C281        C288   1.504       .  S
C281        C282   1.404       .  A
C282        C283   1.406       .  A
C282        H287   1.084       .  S
C283        C284   1.404       .  A
C284        C285   1.504       .  S
C285        H289   1.109       .  S
C285        H290   1.108       .  S
C285        H291   1.109       .  S
C288        H292   1.110       .  S
C288        H293   1.109       .  S
C288        H294   1.111       .  S
C295        C296   1.383       .  A
C295        C300   1.396       .  A
C295        H302   1.084       .  S
C296        C297   1.419       .  A
C297        C304   1.509       .  S
C297        C298   1.394       .  A
C298        C299   1.394       .  A
C298        H303   1.084       .  S
C299        C300   1.435       .  A
C300        C301   1.510       .  S
C301        H305   1.109       .  S
C301        H306   1.110       .  S
C301        H307   1.107       .  S
C304        H308   1.107       .  S
C304        H309   1.106       .  S
C304        H310   1.111       .  S
C311        C312   1.414       .  A
C311        C316   1.433       .  A
C311        H318   1.083       .  S
C312        C313   1.404       .  A
C313        C320   1.503       .  S
C313        C314   1.410       .  A
C314        C315   1.419       .  A
C314        H319   1.073       .  S
C315        C316   1.421       .  A
C316        C317   1.494       .  S
C317        H321   1.109       .  S
C317        H322   1.097       .  S
C317        H323   1.101       .  S
C320        H324   1.109       .  S
C320        H325   1.107       .  S
C320        H326   1.110       .  S
C327        C328   1.421       .  A
C327        C332   1.435       .  A
C327        H334   1.083       .  S
C328        C329   1.408       .  A
C329        C336   1.499       .  S
C329        C330   1.404       .  A
C330        C331   1.415       .  A
C330        H335   1.083       .  S
C331        C332   1.414       .  A
C332        C333   1.498       .  S
C333        H337   1.110       .  S
C333        H338   1.098       .  S
C333        H339   1.095       .  S
C336        H340   1.090       .  S
C336        H341   1.111       .  S
C336        H342   1.111       .  S
C343        C344   1.412       .  A
C343        C348   1.435       .  A
C343        H740   1.083       .  S
C344        C345   1.415       .  A
C345        C352   1.502       .  S
C345        C346   1.432       .  A
C346        C347   1.424       .  A
C346        H351   1.080       .  S
C347        C348   1.430       .  A
C348        C349   1.498       .  S
C349        H353   1.111       .  S
C349        H354   1.105       .  S
C349        H355   1.106       .  S
H350        C733   1.083       .  S
C352        H356   1.111       .  S
C352        H357   1.111       .  S
C352        H358   1.111       .  S
C359        C360   1.399       .  A
C359        C364   1.393       .  A
C359        H756   1.082       .  S
C360        C361   1.403       .  A
C360        N407   1.438       .  S
C361        C368   1.503       .  S
C361        C362   1.401       .  A
C362        C363   1.411       .  A
C362        H367   1.081       .  S
C363        C364   1.420       .  A
C364        C365   1.498       .  S
C365        H370   1.106       .  S
C365        H759   1.109       .  S
C365        H761   1.110       .  S
H366        C749   1.080       .  S
C368        H372   1.105       .  S
C368        H373   1.111       .  S
C368        H374   1.109       .  S
H369        C755   1.110       .  S
H371        C755   1.108       .  S
C375        C766   1.395   1_554  A
C375        C770   1.400       .  A
C375        H382   1.084       .  S
C376        C377   1.420       .  A
C376        C765   1.394       .  A
C376        N404   1.420       .  S
C377        C384   1.511       .  S
C377        C378   1.401       .  A
C378        C379   1.400       .  A
C378        H383   1.084       .  S
C379        C380   1.406       .  A
C380        C771   1.495       .  S
C380        C765   1.385       .  A
C381        C770   1.488       .  S
C381        H385   1.106       .  S
C381        H386   1.102       .  S
C381        H387   1.099       .  S
C384        H388   1.100       .  S
C384        H389   1.104       .  S
C384        H390   1.110       .  S
C391        C393   1.623       .  S
C391        C395   1.559       .  S
C391        C394   1.546       .  S
C391        C415   1.888       .  S
C392        C396   1.638       .  S
C392        C398   1.572       .  S
C392        C397   1.615       .  S
C392        C414   1.911       .  S
C393        C401   1.408       .  A
C394        C405   1.364       .  A
C395        C409   1.361       .  A
C396        C399   1.409       .  A
C397        C403   1.383       .  A
C398        C406   1.374       .  A
C399        N400   1.367       .  A
C399        H412   1.070       .  S
N400        C734   1.490       .  S
C401        H402   1.076       .  S
C403        H413   1.076       .  S
N404        C405   1.328       .  A
C405        H411   1.080       .  S
C406        H408   1.079       .  S
N407        C409   1.356       .  A
C409        H410   1.082       .  S
C414        C416   1.566       .  S
C414        C418   1.637       .  S
C414        C417   1.614       .  S
C415        C419   1.546       .  S
C415        C421   1.598       .  S
C415        C420   1.583       .  S
C416        C424   1.369       .  A
C416        C419   1.461       .  A
C417        C428   1.381       .  A
C417        C420   1.477       .  A
C418        C432   1.401       .  A
C418        C421   1.490       .  A
C419        C422   1.349       .  A
C420        C426   1.404       .  A
C421        C429   1.386       .  A
C422        N423   1.345       .  A
C422        H435   1.079       .  S
N423        C424   1.349       .  A
N423        C686   1.415       .  S
C424        H425   1.074       .  S
C426        N427   1.344       .  A
C426        H436   1.077       .  S
N427        C428   1.349       .  A
N427        C718   1.459       .  S
C428        H434   1.050       .  S
C429        N430   1.363       .  A
C429        H431   1.083       .  S
N430        C432   1.375       .  A
N430        C702   1.465       .  S
C432        H433   1.082       .  S
C437        N455   1.362       .  A
C437        C474   1.453       .  S
C437        C670   1.500       .  S
N438        N455   1.340       .  A
N438        N460   1.336       .  A
N438      Co2035   2.181   1_455  S
C439        N464   1.350       .  A
C439        H484   1.074       .  S
C439        C477   1.451       .  S
H440        C481   1.074   1_554  S
C441        H470   1.070       .  S
C441        C445   1.459       .  S
Co442      N1240   2.118   1_545  S
Co442       N450   2.083       .  S
Co442       N482   2.060       .  S
Co442       N458   2.075       .  S
Co442     Cl2046   2.595   1_445  S
N443        C481   1.344       .  A
N443        N450   1.321       .  A
N443       Co444   2.212       .  S
Co444       N447   2.164   1_545  S
Co444       N464   2.060       .  S
Co444      N2011   2.179   1_455  S
Co444     Cl2046   2.241   1_445  S
C445       N2823   1.333       .  A
C445        C900   1.465       .  S
N446        N453   1.322       .  A
N446        N476   1.327       .  A
N446       Co479   2.204       .  S
N447       N2805   1.312   1_455  A
N448        C477   1.340       .  A
N448        N458   1.311       .  A
H449        C474   1.075       .  S
N450        N471   1.329       .  A
N451        N469   1.328       .  A
N451        N456   1.350       .  A
N451      Co2004   2.180       .  S
C452        N456   1.375       .  A
C452        C480   1.477       .  S
C452        C737   1.573       .  S
N453        C468   1.328       .  A
N453       Co475   2.007       .  S
C454        N482   1.341   1_655  A
C454        H488   1.064   1_655  S
C454       C2017   1.457       .  S
C457       N1258   1.333   1_545  A
C457       C2014   1.423       .  S
C457       C1278   1.476       .  S
N458        N464   1.292       .  A
N459        C485   1.344       .  A
N459        N461   1.298       .  A
N459       Co475   2.126       .  S
N460        C474   1.346       .  A
N460      Co1222   2.120       .  S
N461        N489   1.324       .  A
N461       Co479   2.031       .  S
H462        C485   1.077       .  S
H463        C480   1.075       .  S
N465       N2787   1.306       .  A
N465       Co479   2.105       .  S
N466        N478   1.320       .  A
N466       N2822   1.328       .  A
N466       Co475   2.028       .  S
C467        N471   1.356       .  A
C467        C481   1.472       .  S
C467        C769   1.500       .  S
C468        H472   1.081       .  S
C468        C487   1.447       .  S
N469        C480   1.370       .  A
N469      Co1259   2.193   1_545  S
C473        N489   1.330       .  A
C473        C485   1.424       .  S
C473        C654   1.462       .  S
Co475      N1998   2.118       .  S
Co475     Cl1266   2.464       .  S
N476        C487   1.363       .  A
C477        C638   1.468       .  S
N478       C1237   1.334       .  A
Co479      N1249   2.196       .  S
Co479     Cl1266   2.350       .  S
N482       N2806   1.316   1_455  A
N483       C2785   1.334       .  A
Cl486     Co2002   2.559   1_565  S
Cl486     Co1255   2.466       .  S
Cl486     Co2004   2.267   1_565  S
Cl486     Co1259   2.352       .  S
C487        C753   1.473       .  S
C490        N508   1.356       .  A
C490        C527   1.468       .  S
C490        C625   1.508       .  S
N491        N508   1.334       .  A
N491        N513   1.329       .  A
N491      Co2088   2.110   1_455  S
C492        N517   1.315       .  A
C492        H537   1.080       .  S
C492        C530   1.431       .  S
H493        C534   1.073       .  S
C494        N518   1.325       .  A
C494        H523   1.080       .  S
C494        C498   1.444       .  S
Co495      N1293   2.047   1_545  S
Co495       N503   1.974       .  S
Co495       N535   2.038   1_545  S
Co495       N511   2.159       .  S
Co495     Cl2099   2.466   1_455  S
N496        C534   1.375       .  A
N496        N503   1.318       .  A
N496       Co497   2.212   1_455  S
Co497       N500   2.052       .  S
Co497       N517   1.970   1_655  S
Co497      N2064   2.004       .  S
Co497     Cl2099   2.437       .  S
C498       N2876   1.335       .  A
C498       C1237   1.475       .  S
N499        N506   1.323       .  A
N499        N529   1.355       .  A
N499       Co532   2.213       .  S
N500       N2858   1.336       .  A
N500        N536   1.317       .  A
N501        C530   1.359       .  A
N501        N511   1.339       .  A
H502        C527   1.074       .  S
N503        N524   1.311       .  A
N504        N522   1.321       .  A
N504        N509   1.306       .  A
N504      Co2057   2.005       .  S
C505        N509   1.323       .  A
C505        C533   1.471       .  S
C505        C689   1.467       .  S
N506        C521   1.329       .  A
N506       Co528   1.970       .  S
C507        H541   1.079       .  S
C507       C2070   1.470   1_554  S
C510       N1311   1.336   1_556  A
C510        C835   1.468       .  S
C510       C2067   1.461   1_556  S
N511        N517   1.311       .  A
N512        C538   1.353       .  A
N512        N514   1.323       .  A
N512       Co528   2.187       .  S
N513        C527   1.351       .  A
N513      Co1275   2.045       .  S
N514        N542   1.319       .  A
N514       Co532   2.001       .  S
H515        C538   1.067       .  S
H516        C533   1.081       .  S
N518       N2840   1.339       .  A
N518       Co532   2.055       .  S
N519       N2875   1.326       .  A
N519       Co528   1.940       .  S
C520        N524   1.334       .  A
C520        C534   1.508       .  S
C520        C721   1.525       .  S
C521        H525   1.081       .  S
C521        C540   1.442       .  S
N522        C533   1.345       .  A
N522      Co1312   2.061   1_545  S
C526        N542   1.334       .  A
C526        C538   1.476       .  S
C526        C606   1.510       .  S
Co528      N2051   2.134       .  S
Co528     Cl1319   2.425       .  S
N529        C540   1.384       .  A
C530        C590   1.486       .  S
N531       C1290   1.336   1_554  A
Co532      N1302   2.058       .  S
Co532     Cl1319   2.515       .  S
N535       N2859   1.328       .  A
N536       C2838   1.340       .  A
Cl539     Co2055   2.475       .  S
Cl539     Co2057   2.438       .  S
Cl539     Co1308   2.426   1_545  S
Cl539     Co1312   2.508   1_545  S
C540        C705   1.540       .  S
C543        C545   1.589       .  S
C543        C547   1.589       .  S
C543        C546   1.602       .  S
C543        C567   1.889       .  S
C544        C548   1.594       .  S
C544        C550   1.563       .  S
C544        C549   1.587       .  S
C544        C566   1.924       .  S
C545        C553   1.379       .  A
C545        C548   1.478       .  A
C546        C557   1.380       .  A
C546        C549   1.485       .  A
C547        C561   1.381       .  A
C547        C550   1.483       .  A
C548        C551   1.378       .  A
C549        C555   1.374       .  A
C550        C558   1.359       .  A
C551        N552   1.361       .  A
C551        H564   1.076       .  S
N552        C553   1.357       .  A
N552        C673   1.444       .  S
C553        H554   1.080       .  S
C555        N556   1.342       .  A
C555        H565   1.077       .  S
N556        C557   1.351       .  A
N556        C641   1.427       .  S
C557        H563   1.079       .  S
C558        N559   1.333       .  A
C558        H560   1.072       .  S
N559        C561   1.351       .  A
N559        C657   1.423       .  S
C561        H562   1.079       .  S
C566        C568   1.610   1_556  S
C566        C570   1.616   1_556  S
C566        C569   1.572   1_556  S
C567        C571   1.584       .  S
C567        C573   1.608       .  S
C567        C572   1.601       .  S
C568        C576   1.399       .  A
C569        C580   1.372   1_554  A
C570        C584   1.387       .  A
C571        C574   1.374       .  A
C572        C578   1.379       .  A
C573        C581   1.395       .  A
C574        H587   1.080       .  S
N575        C576   1.365       .  A
C576        H577   1.078   1_554  S
C578        H588   1.069       .  S
N579        C580   1.340   1_554  A
C580        H586   1.074       .  S
C581        H583   1.073       .  S
N582        C584   1.353       .  A
C584        H585   1.075   1_554  S
C589        C590   1.414       .  A
C589        C594   1.393       .  A
C589        H596   1.081       .  S
C590        C591   1.402       .  A
C591        C598   1.505       .  S
C591        C592   1.411       .  A
C592        C593   1.414       .  A
C592        H597   1.082       .  S
C593        C594   1.399       .  A
C594        C595   1.506       .  S
C595        H599   1.108       .  S
C595        H600   1.110       .  S
C595        H601   1.106       .  S
C598        H602   1.105       .  S
C598        H603   1.109       .  S
C598        H604   1.110       .  S
C605        C606   1.414       .  A
C606        C607   1.432       .  A
C607        C614   1.511       .  S
C607        C608   1.405       .  A
C608        C609   1.396       .  A
C608        H613   1.084       .  S
C610        C611   1.502       .  S
C611        H615   1.111       .  S
C611        H616   1.110   1_554  S
C611        H617   1.110       .  S
C614        H618   1.108       .  S
C614        H619   1.109       .  S
C614        H620   1.111       .  S
C621        C622   1.401       .  A
C621        C626   1.411       .  A
C621        H628   1.084       .  S
C622        C623   1.414       .  A
C623        C630   1.505       .  S
C623        C624   1.410       .  A
C624        C625   1.411       .  A
C624        H629   1.083       .  S
C625        C626   1.422       .  A
C626        C627   1.504       .  S
C627        H631   1.111       .  S
C627        H632   1.108       .  S
C627        H633   1.106       .  S
C630        H634   1.111       .  S
C630        H636   1.111       .  S
C637        C638   1.400       .  A
C637        C642   1.397       .  A
C637        H644   1.082       .  S
C638        C639   1.411       .  A
C639        C646   1.502       .  S
C639        C640   1.402       .  A
C640        C641   1.399       .  A
C640        H645   1.083       .  S
C641        C642   1.407       .  A
C642        C643   1.505       .  S
C643        H647   1.111       .  S
C643        H648   1.108       .  S
C643        H649   1.109       .  S
C646       H2210   1.102       .  S
C646        H651   1.110       .  S
C646        H652   1.110       .  S
H650       C2206   1.107       .  S
C653        C654   1.402       .  A
C653        C658   1.398       .  A
C653        H660   1.085       .  S
C654        C655   1.412       .  A
C655        C662   1.505       .  S
C655        C656   1.398       .  A
C656        C657   1.399       .  A
C656        H661   1.084       .  S
C657        C658   1.411       .  A
C658        C659   1.506       .  S
C659        H663   1.111       .  S
C659        H664   1.109       .  S
C659        H665   1.106       .  S
C662        H666   1.107       .  S
C662        H667   1.110       .  S
C662        H668   1.111       .  S
C669        C670   1.410       .  A
C669        C674   1.412       .  A
C669        H676   1.084       .  S
C670        C671   1.428       .  A
C671        C678   1.509       .  S
C671        C672   1.399       .  A
C672        C673   1.397       .  A
C672        H677   1.084       .  S
C673        C674   1.414       .  A
C674        C675   1.504       .  S
C675        H679   1.110       .  S
C675        H680   1.109       .  S
C675        H681   1.109       .  S
C678        H682   1.099       .  S
C678        H683   1.105       .  S
C678        H684   1.111       .  S
C685        C686   1.383       .  A
C685        C690   1.390       .  A
C685        H692   1.084       .  S
C686        C687   1.420       .  A
C687        C694   1.511       .  S
C687        C688   1.389       .  A
C688        C689   1.393       .  A
C688        H693   1.083       .  S
C689        C690   1.434       .  A
C690        C691   1.513       .  S
C691        H695   1.111       .  S
C691        H696   1.109       .  S
C691        H697   1.110       .  S
C694        H698   1.105       .  S
C694        H699   1.102       .  S
C694        H700   1.111       .  S
C701        C702   1.417       .  A
C701        C706   1.434       .  A
C701        H708   1.082       .  S
C702        C703   1.405       .  A
C703        C710   1.502       .  S
C703        C704   1.406       .  A
C704        C705   1.419       .  A
C704        H709   1.078       .  S
C705        C706   1.417       .  A
C706        C707   1.496       .  S
C707        H711   1.109       .  S
C707        H712   1.089       .  S
C707        H713   1.100       .  S
C710        H714   1.111       .  S
C710        H715   1.107       .  S
C710        H716   1.110       .  S
C717        C718   1.412       .  A
C717        C722   1.425       .  A
C717        H724   1.084       .  S
C718        C719   1.406       .  A
C719        C726   1.503       .  S
C719        C720   1.401       .  A
C720        C721   1.417       .  A
C720        H725   1.083       .  S
C721        C722   1.424       .  A
C722        C723   1.497       .  S
C723        H727   1.104       .  S
C723        H728   1.104       .  S
C723        H729   1.100       .  S
C726        H730   1.088       .  S
C726        H731   1.110       .  S
C726        H732   1.111       .  S
C733        C734   1.415       .  A
C733        C738   1.439       .  A
C734        C735   1.419       .  A
C735        C742   1.502       .  S
C735        C736   1.436       .  A
C736        C737   1.425       .  A
C736        H741   1.082       .  S
C737        C738   1.434       .  A
C738        C739   1.504       .  S
C739        H743   1.111       .  S
C739        H744   1.108       .  S
C739        H745   1.106       .  S
C742        H746   1.110       .  S
C742        H747   1.111   1_556  S
C742        H748   1.111       .  S
C749        C750   1.405   1_554  A
C749        C754   1.391   1_554  A
C750        C751   1.409       .  A
C751        C758   1.506       .  S
C751        C752   1.398       .  A
C752        C753   1.408       .  A
C752        H757   1.081       .  S
C753        C754   1.403       .  A
C754        C755   1.498   1_556  S
C755        H760   1.106       .  S
C758        H762   1.107       .  S
C758        H763   1.110       .  S
C758        H764   1.110       .  S
C765        H772   1.085       .  S
C766        C767   1.411       .  A
C767        C774   1.508       .  S
C767        C768   1.414       .  A
C768        C769   1.407       .  A
C768        H773   1.083       .  S
C769        C770   1.413   1_556  A
C771        H775   1.101       .  S
C771        H776   1.109       .  S
C771        H777   1.107       .  S
C774        H778   1.103       .  S
C774        H779   1.111       .  S
C774        H780   1.110       .  S
C781        C783   1.638   1_554  S
C781        C785   1.557   1_554  S
C781        C784   1.553       .  S
C781        C805   1.887       .  S
C782        C786   1.625       .  S
C782        C788   1.582       .  S
C782        C787   1.601       .  S
C782        C804   1.913       .  S
C783        C791   1.419   1_556  A
C783       C1176   1.482       .  A
C784        C795   1.383       .  A
C784       C1177   1.476   1_554  A
C785        C799   1.367   1_556  A
C785       C1178   1.469       .  A
C786       C1173   1.479       .  A
C786        C789   1.393       .  A
C787       C1174   1.485       .  A
C787        C793   1.369       .  A
C788       C1175   1.474       .  A
C788        C796   1.375       .  A
C789        N790   1.365       .  A
C789        H802   1.068       .  S
N790       C1181   1.367       .  A
N790       C1124   1.476       .  S
C791       N1180   1.372   1_554  A
C791        H792   1.079       .  S
C793       N1184   1.338       .  A
C793        H803   1.078       .  S
N794       C1183   1.347       .  A
N794        C795   1.336   1_556  A
N794       C1546   1.436       .  S
C795        H801   1.082       .  S
C796       N1187   1.363       .  A
C796        H798   1.080       .  S
N797       C1186   1.359       .  A
N797        C799   1.351   1_556  A
N797       C1530   1.434       .  S
C799        H800   1.082       .  S
C804        C806   1.576       .  S
C804        C808   1.619       .  S
C804        C807   1.637       .  S
C805        C809   1.547       .  S
C805        C811   1.605       .  S
C805        C810   1.580       .  S
C806        C814   1.385       .  A
C806        C809   1.461       .  A
C807        C818   1.403       .  A
C807        C810   1.483       .  A
C808        C822   1.395       .  A
C808        C811   1.487       .  A
C809        C812   1.351       .  A
C810        C816   1.400       .  A
C811        C819   1.388       .  A
C812        N813   1.343       .  A
C812        H825   1.076       .  S
N813        C814   1.352       .  A
N813       C1076   1.426       .  S
C814        H815   1.075       .  S
C816        N817   1.344       .  A
C816        H826   1.077       .  S
N817        C818   1.355       .  A
N817       C1108   1.464       .  S
C818        H824   1.048       .  S
C819        N820   1.363       .  A
C819        H821   1.081       .  S
N820        C822   1.370       .  A
N820       C1092   1.459       .  S
C822        H823   1.082       .  S
C827        N845   1.341       .  A
C827        C864   1.472       .  S
C827       C1060   1.481       .  S
N828        N845   1.322       .  A
N828        N850   1.335       .  A
N828      Co2425   2.116   1_455  S
C829        N854   1.343       .  A
C829        H874   1.072       .  S
C829        C867   1.442       .  S
H830        C871   1.071       .  S
C831       N1245   1.373       .  A
C831        H860   1.068       .  S
C831        C835   1.450       .  S
Co832       N840   2.087       .  S
Co832       N872   2.084       .  S
Co832       N848   2.103       .  S
Co832     Cl2436   2.552       .  S
N833        C871   1.335       .  A
N833        N840   1.327       .  A
N833       Co834   2.177       .  S
Co834       N837   2.155       .  S
Co834       N854   2.035       .  S
Co834      N2401   2.181   1_455  S
Co834     Cl2436   2.274       .  S
C835       N1653   1.334       .  A
N836        N843   1.316       .  A
N836        N866   1.325       .  A
N836       Co869   2.146       .  S
N837       N1635   1.305       .  A
N837       N1263   1.332       .  A
N838        C867   1.347       .  A
N838        N848   1.317       .  A
H839        C864   1.077       .  S
N840        N861   1.323       .  A
N841        N859   1.332       .  A
N841        N846   1.348       .  A
N841      Co2394   2.172       .  S
C842        N846   1.371       .  A
C842        C870   1.464       .  S
C842       C1127   1.557       .  S
N843        C858   1.341       .  A
N843       Co865   2.081       .  S
C844        N872   1.341       .  A
C844        H878   1.058       .  S
C844       C2407   1.422   1_455  S
C847       C2404   1.455       .  S
N848        N854   1.295       .  A
N849        C875   1.360       .  A
N849        N851   1.297       .  A
N849       Co865   2.177       .  S
N850        C864   1.356       .  A
N851        N879   1.318       .  A
N851       Co869   2.013       .  S
H852        C875   1.075       .  S
H853        C870   1.072       .  S
N855       C1221   1.365       .  A
N855       N1617   1.310       .  A
N855       Co869   2.074       .  S
N856        N868   1.321   1_565  A
N856       N1652   1.318   1_565  A
N856       Co865   2.025       .  S
C857        N861   1.351       .  A
C857        C871   1.462       .  S
C857       C1159   1.472       .  S
C858        H862   1.075       .  S
C858        C877   1.458       .  S
N859        C870   1.361       .  A
C863        N879   1.335       .  A
C863        C875   1.447       .  S
C863       C1044   1.457       .  S
Co865      N2388   2.179       .  S
N866        C877   1.349       .  A
C867       C1028   1.479       .  S
N872       N1636   1.326   1_455  A
N873       C1615   1.333       .  A
N873       N1227   1.326       .  A
Cl876     Co2392   2.598       .  S
Cl876     Co2394   2.240       .  S
C877       C1143   1.485       .  S
C880        N898   1.359       .  A
C880        C917   1.468       .  S
C880       C1015   1.520       .  S
N881        N898   1.338       .  A
N881        N903   1.335       .  A
N881      Co2478   2.133   1_455  S
C882        N907   1.320       .  A
C882        H927   1.078       .  S
C882        C920   1.436       .  S
H883        C924   1.081       .  S
C884        N908   1.336       .  A
C884        H913   1.077       .  S
C884        C888   1.460       .  S
Co885       N893   1.991       .  S
Co885       N925   2.068       .  S
Co885       N901   2.204       .  S
Co885     Cl2489   2.482   1_455  S
N886        C924   1.376       .  A
N886        N893   1.321       .  A
N886       Co887   2.201   1_455  S
Co887       N890   2.086       .  S
Co887       N907   1.955   1_655  S
Co887      N2454   2.002       .  S
Co887     Cl2489   2.433       .  S
C888       N1706   1.341       .  A
N889        N896   1.314       .  A
N889        N919   1.354       .  A
N889       Co922   2.225       .  S
N890       N1688   1.339       .  A
N890        N926   1.306       .  A
N891        C920   1.361       .  A
N891        N901   1.347       .  A
H892        C917   1.073   1_545  S
N893        N914   1.311       .  A
N894        N912   1.322       .  A
N894        N899   1.313       .  A
N894      Co2447   2.008       .  S
C895        N899   1.329       .  A
C895        C923   1.477       .  S
C895       C1079   1.481       .  S
N896        C911   1.329       .  A
N896       Co918   1.998       .  S
C897       N1315   1.354       .  A
C897        H931   1.074       .  S
C897       C2460   1.456       .  S
C900       C2457   1.471       .  S
N901        N907   1.315       .  A
N902        C928   1.367       .  A
N902        N904   1.326       .  A
N902       Co918   2.212       .  S
N903        C917   1.350       .  A
N904        N932   1.314       .  A
N904       Co922   2.010       .  S
H905        C928   1.078       .  S
H906        C923   1.081       .  S
N908       N1670   1.333       .  A
N908       Co922   2.116   1_545  S
N909       N1311   1.326       .  A
N909       N1705   1.328       .  A
N909       Co918   1.980       .  S
C910        N914   1.332       .  A
C910        C924   1.509       .  S
C910       C1111   1.527       .  S
C911        H915   1.078       .  S
C911        C930   1.445       .  S
N912        C923   1.351       .  A
C916        N932   1.331       .  A
C916        C928   1.479       .  S
C916        C996   1.507       .  S
Co918      N2441   2.107       .  S
N919        C930   1.379       .  A
C920        C980   1.501       .  S
N921       N1299   1.324       .  A
N925       C1287   1.362       .  A
N925       N1689   1.325       .  A
N926       C1668   1.335       .  A
Cl929     Co2445   2.461       .  S
Cl929     Co2447   2.444       .  S
C930       C1095   1.539       .  S
C933        C935   1.595       .  S
C933        C937   1.581       .  S
C933        C936   1.593       .  S
C933        C957   1.875       .  S
C934        C938   1.571       .  S
C934        C940   1.567       .  S
C934        C939   1.585       .  S
C934        C956   1.883       .  S
C935        C943   1.372       .  A
C935        C938   1.481       .  A
C936        C947   1.387       .  A
C936        C939   1.486       .  A
C937        C951   1.377       .  A
C937        C940   1.469       .  A
C938        C941   1.369       .  A
C939        C945   1.374       .  A
C940        C948   1.369       .  A
C941        N942   1.354       .  A
C941        H954   1.080       .  S
N942        C943   1.354       .  A
N942       C1063   1.434       .  S
C943        H944   1.077       .  S
C945        N946   1.335       .  A
C945        H955   1.070       .  S
N946        C947   1.348       .  A
N946       C1031   1.434       .  S
C947        H953   1.073       .  S
C948        N949   1.354       .  A
C948        H950   1.082       .  S
N949        C951   1.354       .  A
N949       C1047   1.428       .  S
C951        H952   1.077       .  S
C956        C958   1.596       .  S
C956        C960   1.564       .  S
C956        C959   1.575       .  S
C957        C961   1.584       .  S
C957        C963   1.594       .  S
C957        C962   1.598       .  S
C958        C966   1.388       .  A
C958       C1351   1.470       .  A
C959        C970   1.369       .  A
C959       C1352   1.479       .  A
C960        C974   1.363       .  A
C960       C1353   1.470       .  A
C961       C1348   1.476       .  A
C961        C964   1.380       .  A
C962       C1349   1.472       .  A
C962        C968   1.390       .  A
C963       C1350   1.480       .  A
C963        C971   1.389       .  A
C964       N1355   1.353       .  A
C964        H977   1.081       .  S
N965       C1354   1.355       .  A
N965        C966   1.366       .  A
N965       C1402   1.447       .  S
C966        H967   1.079       .  S
C968       N1359   1.360       .  A
C968        H978   1.081       .  S
N969       C1358   1.350       .  A
N969        C970   1.337       .  A
N969       C1373   1.443       .  S
C970        H976   1.059       .  S
C971       N1362   1.357       .  A
C971        H973   1.082       .  S
N972       C1361   1.369       .  A
N972        C974   1.350       .  A
N972       C1389   1.447       .  S
C974        H975   1.071       .  S
C979        C980   1.411       .  A
C979        C984   1.392       .  A
C979        H986   1.080   1_554  S
C980        C981   1.417       .  A
C981        C988   1.503   1_554  S
C981        C982   1.422       .  A
C982        C983   1.412       .  A
C982        H987   1.083       .  S
C983        C984   1.404       .  A
C983       N1359   1.439       .  S
C984        C985   1.509       .  S
C985        H989   1.111       .  S
C985        H990   1.109       .  S
C985        H991   1.109       .  S
C988        H992   1.108       .  S
C988        H993   1.107   1_556  S
C988        H994   1.111       .  S
C995        C996   1.410       .  A
C995       C1390   1.417       .  A
C995       H1392   1.084       .  S
C996        C997   1.435       .  A
C997       C1004   1.511       .  S
C997        C998   1.404       .  A
C998        C999   1.390       .  A
C998       H1003   1.084       .  S
C999       C1390   1.418       .  A
C999       N1362   1.443       .  S
C1000      C1001   1.502       .  S
C1000      C1385   1.419       .  A
C1000      C1389   1.413       .  A
C1001      H1005   1.111       .  S
C1001      H1006   1.110       .  S
C1001      H1007   1.110       .  S
H1002      C1385   1.083       .  S
C1004      H1008   1.110       .  S
C1004      H1009   1.110       .  S
C1004      H1010   1.111       .  S
C1011      C1012   1.397       .  A
C1011      C1016   1.414       .  A
C1011      H1018   1.084       .  S
C1012      C1013   1.410       .  A
C1012      N1355   1.448       .  S
C1013      C1020   1.504       .  S
C1013      C1014   1.413       .  A
C1014      C1015   1.412       .  A
C1014      H1019   1.083       .  S
C1015      C1016   1.430       .  A
C1016      C1017   1.503       .  S
C1017      H1021   1.111       .  S
C1017      H1022   1.104       .  S
C1017      H1023   1.105       .  S
C1020      H1024   1.110       .  S
C1020      H1415   1.109       .  S
C1020      H1026   1.111       .  S
H1025      C1410   1.108       .  S
C1027      C1028   1.405       .  A
C1027      C1032   1.404       .  A
C1027      H1034   1.084       .  S
C1028      C1029   1.417       .  A
C1029      C1036   1.506       .  S
C1029      C1030   1.406       .  A
C1030      C1031   1.405       .  A
C1030      H1035   1.084       .  S
C1031      C1032   1.406       .  A
C1032      C1033   1.503       .  S
C1033      H1037   1.111       .  S
C1033      H1038   1.110       .  S
C1033      H1039   1.110       .  S
C1036      H2600   1.106       .  S
C1036      H1041   1.110       .  S
C1036      H1042   1.111       .  S
H1040      C2596   1.103       .  S
C1043      C1044   1.394       .  A
C1043      C1048   1.387       .  A
C1043      H1050   1.086       .  S
C1044      C1045   1.409       .  A
C1045      C1052   1.505       .  S
C1045      C1046   1.406       .  A
C1046      C1047   1.402       .  A
C1046      H1051   1.083       .  S
C1047      C1048   1.414       .  A
C1048      C1049   1.506       .  S
C1049      H1053   1.105       .  S
C1049      H1054   1.106       .  S
C1049      H1055   1.106       .  S
C1052      H1056   1.110       .  S
C1052      H1057   1.110   1_565  S
C1052      H1058   1.111       .  S
C1059      C1060   1.411       .  A
C1059      C1064   1.398       .  A
C1059      H1066   1.085       .  S
C1060      C1061   1.413       .  A
C1061      C1068   1.505       .  S
C1061      C1062   1.399       .  A
C1062      C1063   1.405       .  A
C1062      H1067   1.082       .  S
C1063      C1064   1.405       .  A
C1064      C1065   1.505       .  S
C1065      H1069   1.109       .  S
C1065      H1070   1.109       .  S
C1065      H1071   1.109       .  S
C1068      H1072   1.108       .  S
C1068      H1073   1.109       .  S
C1068      H1074   1.111       .  S
C1075      C1076   1.390       .  A
C1075      C1080   1.396       .  A
C1075      H1082   1.084       .  S
C1076      C1077   1.417       .  A
C1077      C1084   1.502       .  S
C1077      C1078   1.396       .  A
C1078      C1079   1.397       .  A
C1078      H1083   1.081       .  S
C1079      C1080   1.428       .  A
C1080      C1081   1.508       .  S
C1081      H1085   1.110       .  S
C1081      H1086   1.101       .  S
C1081      H1087   1.106       .  S
C1084      H1088   1.109       .  S
C1084      H1089   1.105       .  S
C1084      H1090   1.111       .  S
C1091      C1092   1.413       .  A
C1091      C1096   1.431       .  A
C1091      H1098   1.083       .  S
C1092      C1093   1.401       .  A
C1093      C1100   1.503       .  S
C1093      C1094   1.404       .  A
C1094      C1095   1.417       .  A
C1094      H1099   1.071       .  S
C1095      C1096   1.420       .  A
C1096      C1097   1.492       .  S
C1097      H1101   1.109       .  S
C1097      H1102   1.093       .  S
C1097      H1103   1.101       .  S
C1100      H1104   1.108       .  S
C1100      H1105   1.106       .  S
C1100      H1106   1.110       .  S
C1107      C1108   1.417       .  A
C1107      C1112   1.430       .  A
C1107      H1114   1.083       .  S
C1108      C1109   1.409       .  A
C1109      C1116   1.502       .  S
C1109      C1110   1.403       .  A
C1110      C1111   1.413       .  A
C1110      H1115   1.083       .  S
C1111      C1112   1.412       .  A
C1112      C1113   1.491       .  S
C1113      H1117   1.110       .  S
C1113      H1118   1.088       .  S
C1113      H1119   1.089       .  S
C1116      H1120   1.096       .  S
C1116      H1121   1.110       .  S
C1116      H1122   1.111       .  S
C1123      C1124   1.411       .  A
C1123      C1128   1.431       .  A
C1123      H1520   1.083       .  S
C1124      C1125   1.413       .  A
C1125      C1132   1.502       .  S
C1125      C1126   1.428       .  A
C1126      C1127   1.422       .  A
C1126      H1131   1.080       .  S
C1127      C1128   1.429       .  A
C1128      C1129   1.499       .  S
C1129      H1133   1.111       .  S
C1129      H1134   1.107       .  S
C1129      H1135   1.105       .  S
H1130      C1513   1.083       .  S
C1132      H1136   1.111       .  S
C1132      H1137   1.110       .  S
C1132      H1138   1.111       .  S
C1139      C1140   1.399       .  A
C1139      C1144   1.393       .  A
C1139      H1536   1.082       .  S
C1140      C1141   1.402       .  A
C1140      N1187   1.437       .  S
C1141      C1148   1.504       .  S
C1141      C1142   1.402       .  A
C1142      C1143   1.411       .  A
C1142      H1147   1.081       .  S
C1143      C1144   1.420       .  A
C1144      C1145   1.500       .  S
C1145      H1539   1.111       .  S
C1145      H1150   1.107       .  S
C1145      H1541   1.110       .  S
H1146      C1529   1.080       .  S
C1148      H1152   1.105       .  S
C1148      H1153   1.111       .  S
C1148      H1154   1.108       .  S
H1149      C1535   1.110       .  S
H1151      C1535   1.108       .  S
C1155      C1546   1.393   1_554  A
C1155      C1550   1.398       .  A
C1155      H1162   1.084       .  S
C1156      C1545   1.394       .  A
C1156      C1157   1.410       .  A
C1156      N1184   1.420       .  S
C1157      C1164   1.508       .  S
C1157      C1158   1.401       .  A
C1158      C1159   1.402       .  A
C1158      H1163   1.083       .  S
C1159      C1160   1.410       .  A
C1160      C1551   1.494       .  S
C1160      C1545   1.387       .  A
C1161      C1550   1.487       .  S
C1161      H1165   1.108       .  S
C1161      H1166   1.103       .  S
C1161      H1167   1.096       .  S
C1164      H1168   1.102       .  S
C1164      H1169   1.111       .  S
C1164      H1170   1.110       .  S
C1171      C1173   1.622       .  S
C1171      C1175   1.552       .  S
C1171      C1174   1.544       .  S
C1171      C1195   1.881       .  S
C1172      C1176   1.638       .  S
C1172      C1178   1.570       .  S
C1172      C1177   1.608       .  S
C1172      C1194   1.904       .  S
C1173      C1181   1.405       .  A
C1174      C1185   1.374       .  A
C1175      C1189   1.362       .  A
C1176      C1179   1.410       .  A
C1177      C1183   1.379       .  A
C1178      C1186   1.370       .  A
C1179      N1180   1.367       .  A
C1179      H1192   1.071       .  S
N1180      C1514   1.493       .  S
C1181      H1182   1.075       .  S
C1183      H1193   1.076       .  S
N1184      C1185   1.322       .  A
C1185      H1191   1.081       .  S
C1186      H1188   1.080       .  S
N1187      C1189   1.352       .  A
C1189      H1190   1.082       .  S
C1194      C1196   1.565       .  S
C1194      C1198   1.637       .  S
C1194      C1197   1.613       .  S
C1195      C1199   1.551       .  S
C1195      C1201   1.596       .  S
C1195      C1200   1.575       .  S
C1196      C1204   1.368       .  A
C1196      C1199   1.461       .  A
C1197      C1208   1.383       .  A
C1197      C1200   1.474       .  A
C1198      C1212   1.402       .  A
C1198      C1201   1.489       .  A
C1199      C1202   1.352       .  A
C1200      C1206   1.398       .  A
C1201      C1209   1.386       .  A
C1202      N1203   1.347       .  A
C1202      H1215   1.078       .  S
N1203      C1204   1.349       .  A
N1203      C1466   1.417       .  S
C1204      H1205   1.074       .  S
C1206      N1207   1.342       .  A
C1206      H1216   1.078       .  S
N1207      C1208   1.347       .  A
N1207      C1498   1.453       .  S
C1208      H1214   1.053       .  S
C1209      N1210   1.363       .  A
C1209      H1211   1.082       .  S
N1210      C1212   1.376       .  A
N1210      C1482   1.466       .  S
C1212      H1213   1.082       .  S
C1217      N1235   1.362       .  A
C1217      C1254   1.456       .  S
C1217      C1450   1.504       .  S
N1218      N1235   1.339       .  A
N1218      N1240   1.335       .  A
N1218     Co2815   2.183   1_455  S
C1219      N1244   1.349       .  A
C1219      H1264   1.074       .  S
C1219      C1257   1.454       .  S
H1220      C1261   1.073   1_554  S
C1221      H1250   1.068       .  S
C1221      C1225   1.456       .  S
Co1222     N1230   2.081       .  S
Co1222     N1262   2.056       .  S
Co1222     N1238   2.087       .  S
Co1222    Cl2826   2.604   1_455  S
N1223      C1261   1.345       .  A
N1223      N1230   1.322       .  A
N1223     Co1224   2.221       .  S
Co1224     N1227   2.168       .  S
Co1224     N1244   2.059       .  S
Co1224     N2791   2.188   1_455  S
Co1224    Cl2826   2.237   1_455  S
C1225      N2043   1.334       .  A
N1226      N1233   1.322       .  A
N1226      N1256   1.327       .  A
N1226     Co1259   2.204       .  S
N1227      N2025   1.312   1_455  A
N1228      C1257   1.341       .  A
N1228      N1238   1.313       .  A
H1229      C1254   1.075       .  S
N1230      N1251   1.329       .  A
N1231      N1249   1.328       .  A
N1231      N1236   1.350       .  A
N1231     Co2784   2.175       .  S
C1232      N1236   1.376       .  A
C1232      C1260   1.479       .  S
C1232      C1517   1.574       .  S
N1233      C1248   1.330       .  A
N1233     Co1255   2.011       .  S
C1234      N1262   1.339   1_655  A
C1234      H1268   1.065   1_655  S
C1234      C2797   1.455       .  S
C1237      C2794   1.423       .  S
N1238      N1244   1.291       .  A
N1239      C1265   1.343       .  A
N1239      N1241   1.298       .  A
N1239     Co1255   2.122       .  S
N1240      C1254   1.347       .  A
N1241      N1269   1.323       .  A
N1241     Co1259   2.028       .  S
H1242      C1265   1.076       .  S
H1243      C1260   1.076       .  S
N1245      N2007   1.306       .  A
N1245     Co1259   2.102       .  S
N1246      N1258   1.321       .  A
N1246      N2042   1.327   1_565  A
N1246     Co1255   2.033       .  S
C1247      N1251   1.356       .  A
C1247      C1261   1.471       .  S
C1247      C1549   1.500       .  S
C1248      H1252   1.080       .  S
C1248      C1267   1.449       .  S
N1249      C1260   1.370       .  A
C1253      N1269   1.329       .  A
C1253      C1265   1.424       .  S
C1253      C1434   1.460       .  S
Co1255     N2778   2.117       .  S
N1256      C1267   1.361       .  A
C1257      C1418   1.476       .  S
N1262      N2026   1.317   1_455  A
N1263      C2005   1.335       .  A
Cl1266    Co2782   2.563       .  S
Cl1266    Co2784   2.267       .  S
C1267      C1533   1.474       .  S
C1270      N1288   1.354       .  A
C1270      C1307   1.470       .  S
C1270      C1405   1.507       .  S
N1271      N1288   1.332       .  A
N1271      N1293   1.329       .  A
N1271     Co2868   2.109   1_455  S
C1272      N1297   1.317       .  A
C1272      H1317   1.081       .  S
C1272      C1310   1.431       .  S
H1273      C1314   1.074       .  S
C1274      N1298   1.325       .  A
C1274      H1303   1.081       .  S
C1274      C1278   1.444       .  S
Co1275     N1283   1.965       .  S
Co1275     N1315   2.025       .  S
Co1275     N1291   2.168       .  S
Co1275    Cl2879   2.457   1_455  S
N1276      C1314   1.376       .  A
N1276      N1283   1.318       .  A
N1276     Co1277   2.227       .  S
Co1277     N1280   2.053   1_455  S
Co1277     N1297   1.967       .  S
Co1277     N2844   2.008   1_455  S
Co1277    Cl2879   2.447   1_455  S
C1278      N2096   1.336       .  A
N1279      N1286   1.323       .  A
N1279      N1309   1.356       .  A
N1279     Co1312   2.226       .  S
N1280      N2078   1.337       .  A
N1280      N1316   1.317       .  A
N1281      C1310   1.359       .  A
N1281      N1291   1.340       .  A
H1282      C1307   1.077   1_545  S
N1283      N1304   1.312       .  A
N1284      N1302   1.321       .  A
N1284      N1289   1.306       .  A
N1284     Co2837   2.011       .  S
C1285      N1289   1.323       .  A
C1285      C1313   1.469       .  S
C1285      C1469   1.469       .  S
N1286      C1301   1.329       .  A
N1286     Co1308   1.971       .  S
C1287      H1321   1.079       .  S
C1287      C2850   1.471   1_554  S
C1290      C2847   1.461   1_556  S
N1291      N1297   1.308       .  A
N1292      C1318   1.356       .  A
N1292      N1294   1.323       .  A
N1292     Co1308   2.189       .  S
N1293      C1307   1.353       .  A
N1294      N1322   1.318       .  A
N1294     Co1312   1.998       .  S
H1295      C1318   1.068       .  S
H1296      C1313   1.081       .  S
N1298      N2060   1.340       .  A
N1298     Co1312   2.059   1_545  S
N1299      N2095   1.326       .  A
N1299     Co1308   1.948       .  S
C1300      N1304   1.329       .  A
C1300      C1314   1.509       .  S
C1300      C1501   1.521       .  S
C1301      H1305   1.081       .  S
C1301      C1320   1.440       .  S
N1302      C1313   1.346       .  A
C1306      N1322   1.332       .  A
C1306      C1318   1.475       .  S
C1306      C1386   1.509       .  S
Co1308     N2831   2.128       .  S
N1309      C1320   1.387       .  A
C1310      C1370   1.487       .  S
N1315      N2079   1.328       .  A
N1316      C2058   1.340       .  A
Cl1319    Co2835   2.480       .  S
Cl1319    Co2837   2.436       .  S
C1320      C1485   1.544       .  S
C1323      C1325   1.586       .  S
C1323      C1327   1.579       .  S
C1323      C1326   1.608       .  S
C1323      C1347   1.878       .  S
C1324      C1328   1.596       .  S
C1324      C1330   1.566       .  S
C1324      C1329   1.585       .  S
C1324      C1346   1.919       .  S
C1325      C1333   1.376       .  A
C1325      C1328   1.476       .  A
C1326      C1337   1.388       .  A
C1326      C1329   1.482       .  A
C1327      C1341   1.377       .  A
C1327      C1330   1.482       .  A
C1328      C1331   1.381       .  A
C1329      C1335   1.375       .  A
C1330      C1338   1.358       .  A
C1331      N1332   1.363       .  A
C1331      H1344   1.076       .  S
N1332      C1333   1.356       .  A
N1332      C1453   1.445       .  S
C1333      H1334   1.078       .  S
C1335      N1336   1.340       .  A
C1335      H1345   1.078       .  S
N1336      C1337   1.353       .  A
N1336      C1421   1.431       .  S
C1337      H1343   1.079       .  S
C1338      N1339   1.334       .  A
C1338      H1340   1.071       .  S
N1339      C1341   1.346       .  A
N1339      C1437   1.419       .  S
C1341      H1342   1.078       .  S
C1346      C1348   1.602   1_556  S
C1346      C1350   1.611   1_556  S
C1346      C1349   1.570   1_556  S
C1347      C1351   1.577       .  S
C1347      C1353   1.619       .  S
C1347      C1352   1.593       .  S
C1348      C1356   1.393       .  A
C1349      C1360   1.372       .  A
C1350      C1364   1.383       .  A
C1351      C1354   1.373       .  A
C1352      C1358   1.381       .  A
C1353      C1361   1.398       .  A
C1354      H1367   1.081       .  S
N1355      C1356   1.362       .  A
C1356      H1357   1.079   1_554  S
C1358      H1368   1.071       .  S
N1359      C1360   1.336       .  A
C1360      H1366   1.075   1_554  S
C1361      H1363   1.075       .  S
N1362      C1364   1.349       .  A
C1364      H1365   1.074   1_554  S
C1369      C1370   1.414       .  A
C1369      C1374   1.395       .  A
C1369      H1376   1.081       .  S
C1370      C1371   1.405       .  A
C1371      C1378   1.505       .  S
C1371      C1372   1.408       .  A
C1372      C1373   1.418       .  A
C1372      H1377   1.082       .  S
C1373      C1374   1.404       .  A
C1374      C1375   1.505       .  S
C1375      H1379   1.108       .  S
C1375      H1380   1.110       .  S
C1375      H1381   1.102       .  S
C1378      H1382   1.104       .  S
C1378      H1383   1.110       .  S
C1378      H1384   1.110       .  S
C1385      C1386   1.413       .  A
C1386      C1387   1.432       .  A
C1387      C1394   1.511       .  S
C1387      C1388   1.405       .  A
C1388      C1389   1.396       .  A
C1388      H1393   1.084       .  S
C1390      C1391   1.505       .  S
C1391      H1395   1.108   1_554  S
C1391      H1396   1.109       .  S
C1391      H1397   1.111       .  S
C1394      H1398   1.110       .  S
C1394      H1399   1.110       .  S
C1394      H1400   1.111       .  S
C1401      C1402   1.403       .  A
C1401      C1406   1.413       .  A
C1401      H1408   1.084       .  S
C1402      C1403   1.412       .  A
C1403      C1410   1.505       .  S
C1403      C1404   1.407       .  A
C1404      C1405   1.411       .  A
C1404      H1409   1.083       .  S
C1405      C1406   1.422       .  A
C1406      C1407   1.505       .  S
C1407      H1411   1.111       .  S
C1407      H1412   1.108       .  S
C1407      H1413   1.108   1_565  S
C1410      H1414   1.111       .  S
C1410      H1416   1.111       .  S
C1417      C1418   1.403       .  A
C1417      C1422   1.404       .  A
C1417      H1424   1.081       .  S
C1418      C1419   1.411       .  A
C1419      C1426   1.500       .  S
C1419      C1420   1.402       .  A
C1420      C1421   1.398       .  A
C1420      H1425   1.082       .  S
C1421      C1422   1.408       .  A
C1422      C1423   1.503       .  S
C1423      H1427   1.111       .  S
C1423      H1428   1.110       .  S
C1423      H1429   1.110       .  S
C1426      H2990   1.101       .  S
C1426      H1431   1.111       .  S
C1426      H1432   1.111       .  S
H1430      C2986   1.110       .  S
C1433      C1434   1.402       .  A
C1433      C1438   1.397       .  A
C1433      H1440   1.084       .  S
C1434      C1435   1.413       .  A
C1435      C1442   1.506       .  S
C1435      C1436   1.397       .  A
C1436      C1437   1.398       .  A
C1436      H1441   1.084       .  S
C1437      C1438   1.408       .  A
C1438      C1439   1.507       .  S
C1439      H1443   1.111       .  S
C1439      H1444   1.110       .  S
C1439      H1445   1.106       .  S
C1442      H1446   1.107       .  S
C1442      H1447   1.110       .  S
C1442      H1448   1.111       .  S
C1449      C1450   1.410       .  A
C1449      C1454   1.414       .  A
C1449      H1456   1.084       .  S
C1450      C1451   1.431       .  A
C1451      C1458   1.509       .  S
C1451      C1452   1.402       .  A
C1452      C1453   1.396       .  A
C1452      H1457   1.084       .  S
C1453      C1454   1.411       .  A
C1454      C1455   1.504       .  S
C1455      H1459   1.108       .  S
C1455      H1460   1.111       .  S
C1455      H1461   1.109       .  S
C1458      H1462   1.101       .  S
C1458      H1463   1.106       .  S
C1458      H1464   1.111       .  S
C1465      C1466   1.382       .  A
C1465      C1470   1.391       .  A
C1465      H1472   1.084       .  S
C1466      C1467   1.421       .  A
C1467      C1474   1.511       .  S
C1467      C1468   1.390       .  A
C1468      C1469   1.393       .  A
C1468      H1473   1.083       .  S
C1469      C1470   1.435       .  A
C1470      C1471   1.513       .  S
C1471      H1475   1.111       .  S
C1471      H1476   1.110       .  S
C1471      H1477   1.110       .  S
C1474      H1478   1.105       .  S
C1474      H1479   1.102       .  S
C1474      H1480   1.111       .  S
C1481      C1482   1.418       .  A
C1481      C1486   1.434       .  A
C1481      H1488   1.083       .  S
C1482      C1483   1.406       .  A
C1483      C1490   1.504       .  S
C1483      C1484   1.408       .  A
C1484      C1485   1.420       .  A
C1484      H1489   1.077       .  S
C1485      C1486   1.417       .  A
C1486      C1487   1.494       .  S
C1487      H1491   1.109       .  S
C1487      H1492   1.085       .  S
C1487      H1493   1.101       .  S
C1490      H1494   1.110       .  S
C1490      H1495   1.108       .  S
C1490      H1496   1.110       .  S
C1497      C1498   1.409       .  A
C1497      C1502   1.420       .  A
C1497      H1504   1.083       .  S
C1498      C1499   1.406       .  A
C1499      C1506   1.504       .  S
C1499      C1500   1.404       .  A
C1500      C1501   1.417       .  A
C1500      H1505   1.083       .  S
C1501      C1502   1.415       .  A
C1502      C1503   1.487       .  S
C1503      H1507   1.111       .  S
C1503      H1508   1.098       .  S
C1503      H1509   1.083       .  S
C1506      H1510   1.093       .  S
C1506      H1511   1.110       .  S
C1506      H1512   1.111       .  S
C1513      C1514   1.417       .  A
C1513      C1518   1.441       .  A
C1514      C1515   1.419       .  A
C1515      C1522   1.502       .  S
C1515      C1516   1.438       .  A
C1516      C1517   1.426       .  A
C1516      H1521   1.082       .  S
C1517      C1518   1.432       .  A
C1518      C1519   1.506       .  S
C1519      H1523   1.111       .  S
C1519      H1524   1.105       .  S
C1519      H1525   1.107       .  S
C1522      H1526   1.111       .  S
C1522      H1527   1.110   1_556  S
C1522      H1528   1.111       .  S
C1529      C1530   1.404   1_554  A
C1529      C1534   1.393       .  A
C1530      C1531   1.408       .  A
C1531      C1538   1.506       .  S
C1531      C1532   1.398       .  A
C1532      C1533   1.407       .  A
C1532      H1537   1.081       .  S
C1533      C1534   1.403   1_556  A
C1534      C1535   1.496       .  S
C1535      H1540   1.106       .  S
C1538      H1542   1.109       .  S
C1538      H1543   1.110       .  S
C1538      H1544   1.109       .  S
C1545      H1552   1.084       .  S
C1546      C1547   1.411       .  A
C1547      C1554   1.508       .  S
C1547      C1548   1.414       .  A
C1548      C1549   1.408       .  A
C1548      H1553   1.083       .  S
C1549      C1550   1.414   1_556  A
C1551      H1555   1.104       .  S
C1551      H1556   1.101       .  S
C1551      H1557   1.107       .  S
C1554      H1558   1.102       .  S
C1554      H1559   1.111       .  S
C1554      H1560   1.110       .  S
C1561      C1563   1.619   1_554  S
C1561      C1565   1.558   1_554  S
C1561      C1564   1.548   1_554  S
C1561      C1585   1.885       .  S
C1562      C1566   1.649       .  S
C1562      C1568   1.573       .  S
C1562      C1567   1.612       .  S
C1562      C1584   1.916       .  S
C1563      C1571   1.405   1_556  A
C1563      C1956   1.480       .  A
C1564      C1575   1.369   1_556  A
C1564      C1957   1.481       .  A
C1565      C1579   1.363   1_556  A
C1565      C1958   1.475       .  A
C1566      C1953   1.483       .  A
C1566      C1569   1.418       .  A
C1567      C1954   1.477       .  A
C1567      C1573   1.380       .  A
C1568      C1955   1.471       .  A
C1568      C1576   1.374       .  A
C1569      N1570   1.371       .  A
C1569      H1582   1.072       .  S
N1570      C1961   1.372       .  A
N1570      C1904   1.498       .  S
C1571      N1960   1.366   1_554  A
C1571      H1572   1.075       .  S
C1573      N1964   1.346       .  A
C1573      H1583   1.077       .  S
N1574      C1963   1.342       .  A
N1574      C1575   1.328   1_556  A
N1574      C2326   1.422       .  S
C1575      H1581   1.081       .  S
C1576      N1967   1.359       .  A
C1576      H1578   1.079       .  S
N1577      C1966   1.363       .  A
N1577      C1579   1.355   1_556  A
N1577      C2310   1.439       .  S
C1579      H1580   1.082       .  S
C1584      C1586   1.560       .  S
C1584      C1588   1.639       .  S
C1584      C1587   1.619       .  S
C1585      C1589   1.547       .  S
C1585      C1591   1.599       .  S
C1585      C1590   1.576       .  S
C1586      C1594   1.365       .  A
C1586      C1589   1.460       .  A
C1587      C1598   1.385       .  A
C1587      C1590   1.479       .  A
C1588      C1602   1.401       .  A
C1588      C1591   1.492       .  A
C1589      C1592   1.351       .  A
C1590      C1596   1.400       .  A
C1591      C1599   1.385       .  A
C1592      N1593   1.346       .  A
C1592      H1605   1.079       .  S
N1593      C1594   1.347       .  A
N1593      C1856   1.415       .  S
C1594      H1595   1.073       .  S
C1596      N1597   1.340       .  A
C1596      H1606   1.078       .  S
N1597      C1598   1.348       .  A
N1597      C1888   1.455       .  S
C1598      H1604   1.048       .  S
C1599      N1600   1.363       .  A
C1599      H1601   1.083       .  S
N1600      C1602   1.376       .  A
N1600      C1872   1.464       .  S
C1602      H1603   1.082       .  S
C1607      N1625   1.361       .  A
C1607      C1644   1.456       .  S
C1607      C1840   1.501       .  S
N1608      N1625   1.339       .  A
N1608      N1630   1.336       .  A
C1609      N1634   1.347       .  A
C1609      H1654   1.074       .  S
C1609      C1647   1.449       .  S
H1610      C1651   1.073       .  S
C1611      N2025   1.365       .  A
C1611      H1640   1.070       .  S
C1611      C1615   1.458   1_655  S
Co1612     N2410   2.133   1_545  S
Co1612     N1620   2.085       .  S
Co1612     N1652   2.061       .  S
Co1612     N1628   2.085       .  S
N1613      C1651   1.343       .  A
N1613      N1620   1.322       .  A
N1613     Co1614   2.215       .  S
Co1614     N1617   2.156   1_545  S
Co1614     N1634   2.053       .  S
C1615      C2850   1.464       .  S
N1616      N1623   1.322       .  A
N1616      N1646   1.327       .  A
N1616     Co1649   2.202       .  S
N1617      N2043   1.324       .  A
N1618      C1647   1.343       .  A
N1618      N1628   1.314       .  A
H1619      C1644   1.075       .  S
N1620      N1641   1.329       .  A
N1621      N1639   1.327       .  A
N1621      N1626   1.352       .  A
C1622      N1626   1.376       .  A
C1622      C1650   1.480       .  S
C1622      C1907   1.579       .  S
N1623      C1638   1.328       .  A
N1623     Co1645   2.009       .  S
C1624      N1652   1.341       .  A
C1624      H1658   1.061       .  S
C1627      N2428   1.328       .  A
C1627      C2448   1.471       .  S
N1628      N1634   1.292       .  A
N1629      C1655   1.343       .  A
N1629      N1631   1.298       .  A
N1629     Co1645   2.121       .  S
N1630      C1644   1.347       .  A
N1630     Co2392   2.123       .  S
N1631      N1659   1.325       .  A
N1631     Co1649   2.035       .  S
H1632      C1655   1.077       .  S
H1633      C1650   1.075       .  S
N1635      C2001   1.374       .  A
N1635     Co1649   2.110   1_455  S
N1636      N1648   1.321       .  A
N1636     Co1645   2.031       .  S
C1637      N1641   1.357       .  A
C1637      C1651   1.471       .  S
C1637      C1939   1.502       .  S
C1638      H1642   1.080       .  S
C1638      C1657   1.448       .  S
N1639      C1650   1.371       .  A
N1639     Co2429   2.177   1_545  S
C1643      N1659   1.330       .  A
C1643      C1655   1.422       .  S
C1643      C1824   1.460       .  S
Co1645    Cl2436   2.472   1_655  S
N1646      C1657   1.361       .  A
C1647      C1808   1.474       .  S
N1648      C2407   1.332       .  A
Co1649     N2419   2.195       .  S
Co1649    Cl2436   2.346   1_655  S
N1653      N2007   1.331       .  A
Cl1656    Co2425   2.535   1_455  S
Cl1656    Co2429   2.390   1_455  S
C1657      C1923   1.470       .  S
C1660      N1678   1.355       .  A
C1660      C1697   1.473       .  S
C1660      C1795   1.512       .  S
N1661      N1678   1.333       .  A
N1661      N1683   1.330       .  A
C1662      N1687   1.313       .  A
C1662      H1707   1.078       .  S
C1662      C1700   1.431       .  S
H1663      C1704   1.077       .  S
C1664      N1688   1.325       .  A
C1664      H1693   1.081       .  S
C1664      C1668   1.443       .  S
Co1665     N2463   2.056   1_545  S
Co1665     N1673   1.967       .  S
Co1665     N1705   2.028   1_545  S
Co1665     N1681   2.162       .  S
N1666      C1704   1.376       .  A
N1666      N1673   1.320       .  A
N1666     Co1667   2.213       .  S
Co1667     N1670   2.055       .  S
Co1667     N1687   1.971       .  S
C1668      C2407   1.475       .  S
N1669      N1676   1.324       .  A
N1669      N1699   1.354       .  A
N1669     Co1702   2.211       .  S
N1670      N1706   1.314       .  A
N1671      C1700   1.359       .  A
N1671      N1681   1.340       .  A
H1672      C1697   1.077       .  S
N1673      N1694   1.308       .  A
N1674      N1692   1.322       .  A
N1674      N1679   1.306       .  A
C1675      N1679   1.324       .  A
C1675      C1703   1.469       .  S
C1675      C1859   1.468       .  S
N1676      C1691   1.328       .  A
N1676     Co1698   1.973       .  S
C1677      N2095   1.360       .  A
C1677      H1711   1.079       .  S
C1680      N2481   1.335       .  A
C1680      C2785   1.467       .  S
N1681      N1687   1.311       .  A
N1682      C1708   1.352       .  A
N1682      N1684   1.324       .  A
N1682     Co1698   2.180       .  S
N1683      C1697   1.355       .  A
N1683     Co2445   2.054       .  S
N1684      N1712   1.321       .  A
N1684     Co1702   2.009       .  S
H1685      C1708   1.068       .  S
H1686      C1703   1.081       .  S
N1688     Co1702   2.058       .  S
N1689      N2091   1.323       .  A
N1689     Co1698   1.936   1_455  S
C1690      N1694   1.329       .  A
C1690      C1704   1.507       .  S
C1690      C1891   1.516       .  S
C1691      H1695   1.081       .  S
C1691      C1710   1.441       .  S
N1692      C1703   1.347       .  A
N1692     Co2482   2.061   1_545  S
C1696      N1712   1.337       .  A
C1696      C1708   1.475       .  S
C1696      C1776   1.512       .  S
Co1698    Cl2489   2.421       .  S
N1699      C1710   1.383       .  A
C1700      C1760   1.486       .  S
N1701      C2460   1.338       .  A
N1701      N2079   1.326       .  A
Co1702     N2472   2.064       .  S
Co1702    Cl2489   2.519       .  S
N1705      C2067   1.354       .  A
Cl1709    Co2478   2.426   1_545  S
Cl1709    Co2482   2.512   1_545  S
C1710      C1875   1.538       .  S
C1713      C1715   1.589       .  S
C1713      C1717   1.588       .  S
C1713      C1716   1.605       .  S
C1713      C1737   1.887       .  S
C1714      C1718   1.595       .  S
C1714      C1720   1.562       .  S
C1714      C1719   1.585       .  S
C1714      C1736   1.923       .  S
C1715      C1723   1.379       .  A
C1715      C1718   1.478       .  A
C1716      C1727   1.384       .  A
C1716      C1719   1.486       .  A
C1717      C1731   1.383       .  A
C1717      C1720   1.480       .  A
C1718      C1721   1.379       .  A
C1719      C1725   1.374       .  A
C1720      C1728   1.356       .  A
C1721      N1722   1.362       .  A
C1721      H1734   1.076       .  S
N1722      C1723   1.357       .  A
N1722      C1843   1.444       .  S
C1723      H1724   1.080       .  S
C1725      N1726   1.340       .  A
C1725      H1735   1.078       .  S
N1726      C1727   1.353       .  A
N1726      C1811   1.429       .  S
C1727      H1733   1.078       .  S
C1728      N1729   1.334       .  A
C1728      H1730   1.073       .  S
N1729      C1731   1.351       .  A
N1729      C1827   1.424       .  S
C1731      H1732   1.078       .  S
C1736      C1738   1.605       .  S
C1736      C1740   1.612       .  S
C1736      C1739   1.573       .  S
C1737      C1741   1.584       .  S
C1737      C1743   1.609       .  S
C1737      C1742   1.604       .  S
C1738      C1746   1.396       .  A
C1738      C2131   1.477       .  A
C1739      C1750   1.374       .  A
C1739      C2132   1.473       .  A
C1740      C1754   1.384       .  A
C1740      C2133   1.481       .  A
C1741      C2128   1.472       .  A
C1741      C1744   1.376       .  A
C1742      C2129   1.476       .  A
C1742      C1748   1.385       .  A
C1743      C2130   1.470       .  A
C1743      C1751   1.396       .  A
C1744      N2135   1.355       .  A
C1744      H1757   1.080       .  S
N1745      C2134   1.354       .  A
N1745      C1746   1.364       .  A
N1745      C2182   1.452       .  S
C1746      H1747   1.078       .  S
C1748      N2139   1.357       .  A
C1748      H1758   1.071       .  S
N1749      C2138   1.359       .  A
N1749      C1750   1.339       .  A
N1749      C2153   1.438       .  S
C1750      H1756   1.074       .  S
C1751      N2142   1.367       .  A
C1751      H1753   1.074       .  S
N1752      C2141   1.355       .  A
N1752      C1754   1.351       .  A
N1752      C2169   1.442       .  S
C1754      H1755   1.075       .  S
C1759      C1760   1.414       .  A
C1759      C1764   1.390       .  A
C1759      H1766   1.080       .  S
C1760      C1761   1.407       .  A
C1761      C1768   1.508   1_554  S
C1761      C1762   1.412       .  A
C1762      C1763   1.414       .  A
C1762      H1767   1.082   1_554  S
C1763      C1764   1.396       .  A
C1763      N2139   1.431       .  S
C1764      C1765   1.506       .  S
C1765      H1769   1.109       .  S
C1765      H1770   1.110       .  S
C1765      H1771   1.107       .  S
C1768      H1772   1.105       .  S
C1768      H1773   1.110   1_556  S
C1768      H1774   1.110       .  S
C1775      C1776   1.414       .  A
C1775      C2170   1.418       .  A
C1775      H2172   1.080       .  S
C1776      C1777   1.431       .  A
C1777      C1784   1.510       .  S
C1777      C1778   1.406       .  A
C1778      C1779   1.397       .  A
C1778      H1783   1.084       .  S
C1779      C2170   1.410       .  A
C1779      N2142   1.447       .  S
C1780      C1781   1.502       .  S
C1780      C2165   1.417       .  A
C1780      C2169   1.412       .  A
C1781      H1785   1.111       .  S
C1781      H1786   1.108       .  S
C1781      H1787   1.110       .  S
H1782      C2165   1.083       .  S
C1784      H1788   1.107   1_554  S
C1784      H1789   1.109       .  S
C1784      H1790   1.111       .  S
C1791      C1792   1.403       .  A
C1791      C1796   1.414       .  A
C1791      H1798   1.083       .  S
C1792      C1793   1.412       .  A
C1792      N2135   1.449       .  S
C1793      C1800   1.506       .  S
C1793      C1794   1.410       .  A
C1794      C1795   1.412       .  A
C1794      H1799   1.083       .  S
C1795      C1796   1.423       .  A
C1796      C1797   1.504       .  S
C1797      H1801   1.111       .  S
C1797      H1802   1.109       .  S
C1797      H1803   1.108       .  S
C1800      H1804   1.111       .  S
C1800      H2195   1.108   1_554  S
C1800      H1806   1.111       .  S
H1805      C2190   1.110       .  S
C1807      C1808   1.402       .  A
C1807      C1812   1.402       .  A
C1807      H1814   1.082       .  S
C1808      C1809   1.412       .  A
C1809      C1816   1.501       .  S
C1809      C1810   1.403       .  A
C1810      C1811   1.400       .  A
C1810      H1815   1.084       .  S
C1811      C1812   1.409       .  A
C1812      C1813   1.504       .  S
C1813      H1817   1.111       .  S
C1813      H1818   1.109       .  S
C1813      H1819   1.110       .  S
C1816      H1821   1.109       .  S
C1816      H1822   1.110       .  S
C1823      C1824   1.400       .  A
C1823      C1828   1.395       .  A
C1823      H1830   1.085       .  S
C1824      C1825   1.411       .  A
C1825      C1832   1.505       .  S
C1825      C1826   1.401       .  A
C1826      C1827   1.401       .  A
C1826      H1831   1.084       .  S
C1827      C1828   1.413       .  A
C1828      C1829   1.506       .  S
C1829      H1833   1.106       .  S
C1829      H1834   1.109       .  S
C1829      H1835   1.106       .  S
C1832      H1836   1.108       .  S
C1832      H1837   1.110       .  S
C1832      H1838   1.111       .  S
C1839      C1840   1.410       .  A
C1839      C1844   1.413       .  A
C1839      H1846   1.084       .  S
C1840      C1841   1.428       .  A
C1841      C1848   1.509       .  S
C1841      C1842   1.400       .  A
C1842      C1843   1.397       .  A
C1842      H1847   1.084       .  S
C1843      C1844   1.414       .  A
C1844      C1845   1.504       .  S
C1845      H1849   1.110       .  S
C1845      H1850   1.109       .  S
C1845      H1851   1.109       .  S
C1848      H1852   1.102       .  S
C1848      H1853   1.106       .  S
C1848      H1854   1.111       .  S
C1855      C1856   1.381       .  A
C1855      C1860   1.389       .  A
C1855      H1862   1.084       .  S
C1856      C1857   1.421       .  A
C1857      C1864   1.513       .  S
C1857      C1858   1.390       .  A
C1858      C1859   1.394       .  A
C1858      H1863   1.083       .  S
C1859      C1860   1.434       .  A
C1860      C1861   1.513       .  S
C1861      H1865   1.111       .  S
C1861      H1866   1.110       .  S
C1861      H1867   1.110       .  S
C1864      H1868   1.105       .  S
C1864      H1869   1.103       .  S
C1864      H1870   1.111       .  S
C1871      C1872   1.418       .  A
C1871      C1876   1.433       .  A
C1871      H1878   1.083       .  S
C1872      C1873   1.405       .  A
C1873      C1880   1.504       .  S
C1873      C1874   1.405       .  A
C1874      C1875   1.419       .  A
C1874      H1879   1.078       .  S
C1875      C1876   1.417       .  A
C1876      C1877   1.496       .  S
C1877      H1881   1.109       .  S
C1877      H1882   1.090       .  S
C1877      H1883   1.099       .  S
C1880      H1884   1.110       .  S
C1880      H1885   1.107       .  S
C1880      H1886   1.110       .  S
C1887      C1888   1.413       .  A
C1887      C1892   1.423       .  A
C1887      H1894   1.083       .  S
C1888      C1889   1.407       .  A
C1889      C1896   1.502       .  S
C1889      C1890   1.398       .  A
C1890      C1891   1.414       .  A
C1890      H1895   1.083       .  S
C1891      C1892   1.413       .  A
C1892      C1893   1.490       .  S
C1893      H1897   1.110       .  S
C1893      H1898   1.096       .  S
C1893      H1899   1.084       .  S
C1896      H1900   1.088       .  S
C1896      H1901   1.110       .  S
C1896      H1902   1.111       .  S
C1903      C1904   1.420       .  A
C1903      C1908   1.445       .  A
C1903      H2300   1.083       .  S
C1904      C1905   1.420       .  A
C1905      C1912   1.502       .  S
C1905      C1906   1.438       .  A
C1906      C1907   1.425       .  A
C1906      H1911   1.082       .  S
C1907      C1908   1.435       .  A
C1908      C1909   1.506       .  S
C1909      H1913   1.111       .  S
C1909      H1914   1.103       .  S
C1909      H1915   1.107       .  S
H1910      C2293   1.083       .  S
C1912      H1916   1.110       .  S
C1912      H1917   1.110       .  S
C1912      H1918   1.111       .  S
C1919      C1920   1.406       .  A
C1919      C1924   1.391       .  A
C1919      H2316   1.079       .  S
C1920      C1921   1.408       .  A
C1920      N1967   1.434       .  S
C1921      C1928   1.505       .  S
C1921      C1922   1.397       .  A
C1922      C1923   1.407       .  A
C1922      H1927   1.081       .  S
C1923      C1924   1.402       .  A
C1924      C1925   1.498       .  S
C1925      H2319   1.110       .  S
C1925      H1930   1.105       .  S
C1925      H2321   1.109       .  S
H1926      C2309   1.082       .  S
C1928      H1932   1.108       .  S
C1928      H1933   1.110       .  S
C1928      H1934   1.109       .  S
H1929      C2315   1.111       .  S
H1931      C2315   1.110       .  S
C1935      C2326   1.396   1_554  A
C1935      C2330   1.387       .  A
C1935      H1942   1.084       .  S
C1936      C2325   1.395       .  A
C1936      C1937   1.411       .  A
C1936      N1964   1.439       .  S
C1937      C1944   1.509       .  S
C1937      C1938   1.415       .  A
C1938      C1939   1.408       .  A
C1938      H1943   1.083       .  S
C1939      C1940   1.415       .  A
C1940      C2331   1.490       .  S
C1940      C2325   1.400       .  A
C1941      C2330   1.495       .  S
C1941      H1945   1.103       .  S
C1941      H1946   1.107       .  S
C1941      H1947   1.106       .  S
C1944      H1948   1.104       .  S
C1944      H1949   1.111       .  S
C1944      H1950   1.110       .  S
C1951      C1953   1.636       .  S
C1951      C1955   1.549       .  S
C1951      C1954   1.551       .  S
C1951      C1975   1.883       .  S
C1952      C1956   1.628       .  S
C1952      C1958   1.580       .  S
C1952      C1957   1.595       .  S
C1952      C1974   1.904       .  S
C1953      C1961   1.418       .  A
C1954      C1965   1.387       .  A
C1955      C1969   1.363       .  A
C1956      C1959   1.399       .  A
C1957      C1963   1.369       .  A
C1958      C1966   1.373       .  A
C1959      N1960   1.365       .  A
C1959      H1972   1.067       .  S
N1960      C2294   1.478       .  S
C1961      H1962   1.078       .  S
C1963      H1973   1.071       .  S
N1964      C1965   1.335       .  A
C1965      H1971   1.081       .  S
C1966      H1968   1.080       .  S
N1967      C1969   1.347       .  A
C1969      H1970   1.082       .  S
C1974      C1976   1.575       .  S
C1974      C1978   1.623       .  S
C1974      C1977   1.633       .  S
C1975      C1979   1.547       .  S
C1975      C1981   1.607       .  S
C1975      C1980   1.574       .  S
C1976      C1984   1.381       .  A
C1976      C1979   1.459       .  A
C1977      C1988   1.401       .  A
C1977      C1980   1.477       .  A
C1978      C1992   1.397       .  A
C1978      C1981   1.485       .  A
C1979      C1982   1.349       .  A
C1980      C1986   1.395       .  A
C1981      C1989   1.392       .  A
C1982      N1983   1.343       .  A
C1982      H1995   1.076       .  S
N1983      C1984   1.354       .  A
N1983      C2246   1.424       .  S
C1984      H1985   1.075       .  S
C1986      N1987   1.343       .  A
C1986      H1996   1.079       .  S
N1987      C1988   1.360       .  A
N1987      C2278   1.462       .  S
C1988      H1994   1.063       .  S
C1989      N1990   1.366       .  A
C1989      H1991   1.081       .  S
N1990      C1992   1.372       .  A
N1990      C2262   1.466       .  S
C1992      H1993   1.082       .  S
C1997      N2015   1.340       .  A
C1997      C2034   1.474       .  S
C1997      C2230   1.483       .  S
N1998      N2015   1.321       .  A
N1998      N2020   1.336       .  A
C1999      N2024   1.341       .  A
C1999      H2044   1.071       .  S
C1999      C2037   1.447       .  S
H2000      C2041   1.072   1_554  S
C2001      H2030   1.067       .  S
C2001      C2005   1.447       .  S
Co2002     N2800   2.168   1_545  S
Co2002     N2010   2.085       .  S
Co2002     N2042   2.087       .  S
Co2002     N2018   2.115       .  S
N2003      C2041   1.331       .  A
N2003      N2010   1.326       .  A
N2003     Co2004   2.170       .  S
Co2004     N2007   2.158   1_545  S
Co2004     N2024   2.048       .  S
C2005      C2460   1.468       .  S
N2006      N2013   1.317       .  A
N2006      N2036   1.326       .  A
N2006     Co2039   2.149       .  S
N2008      C2037   1.353       .  A
N2008      N2018   1.324       .  A
H2009      C2034   1.078       .  S
N2010      N2031   1.323       .  A
N2011      N2029   1.332       .  A
N2011      N2016   1.349       .  A
C2012      N2016   1.373       .  A
C2012      C2040   1.464       .  S
C2012      C2297   1.560       .  S
N2013      C2028   1.339       .  A
N2013     Co2035   2.079       .  S
C2014      N2042   1.341       .  A
C2014      H2048   1.057       .  S
C2017      N2818   1.331       .  A
C2017      C2838   1.499       .  S
N2018      N2024   1.295       .  A
N2019      C2045   1.358       .  A
N2019      N2021   1.297       .  A
N2019     Co2035   2.169       .  S
N2020      C2034   1.360       .  A
N2020     Co2782   2.164       .  S
N2021      N2049   1.317       .  A
N2021     Co2039   2.014       .  S
H2022      C2045   1.077       .  S
H2023      C2040   1.071       .  S
N2025     Co2039   2.074       .  S
N2026      N2038   1.323       .  A
N2026     Co2035   2.021       .  S
C2027      N2031   1.352       .  A
C2027      C2041   1.466       .  S
C2027      C2329   1.471       .  S
C2028      H2032   1.075       .  S
C2028      C2047   1.456       .  S
N2029      C2040   1.361       .  A
N2029     Co2819   2.188   1_545  S
C2033      N2049   1.338       .  A
C2033      C2045   1.449       .  S
C2033      C2214   1.459       .  S
Co2035    Cl2826   2.420       .  S
N2036      C2047   1.350       .  A
C2037      C2198   1.497       .  S
N2038      C2797   1.331       .  A
Co2039     N2809   2.194       .  S
Co2039    Cl2826   2.412       .  S
Cl2046    Co2815   2.423       .  S
Cl2046    Co2819   2.410       .  S
C2047      C2313   1.485       .  S
C2050      N2068   1.360       .  A
C2050      C2087   1.470       .  S
C2050      C2185   1.526       .  S
N2051      N2068   1.340       .  A
N2051      N2073   1.335       .  A
C2052      N2077   1.320       .  A
C2052      H2097   1.079       .  S
C2052      C2090   1.438       .  S
H2053      C2094   1.081       .  S
C2054      N2078   1.339       .  A
C2054      H2083   1.078       .  S
C2054      C2058   1.462       .  S
Co2055     N2853   2.069   1_545  S
Co2055     N2063   1.980       .  S
Co2055     N2095   2.054   1_545  S
Co2055     N2071   2.193       .  S
N2056      C2094   1.377       .  A
N2056      N2063   1.319       .  A
N2056     Co2057   2.204       .  S
Co2057     N2060   2.089       .  S
Co2057     N2077   1.963       .  S
C2058      C2797   1.498       .  S
N2059      N2066   1.319       .  A
N2059      N2089   1.355       .  A
N2059     Co2092   2.258       .  S
N2060      N2096   1.306       .  A
N2061      C2090   1.358       .  A
N2061      N2071   1.345       .  A
H2062      C2087   1.073       .  S
N2063      N2084   1.309       .  A
N2064      N2082   1.323       .  A
N2064      N2069   1.312       .  A
C2065      N2069   1.328       .  A
C2065      C2093   1.475       .  S
C2065      C2249   1.480       .  S
N2066      C2081   1.335       .  A
N2066     Co2088   1.980       .  S
C2067      H2101   1.078       .  S
C2070      N2871   1.329   1_556  A
C2070      C2395   1.465       .  S
N2071      N2077   1.315       .  A
N2072      C2098   1.369       .  A
N2072      N2074   1.324       .  A
N2072     Co2088   2.201       .  S
N2073      C2087   1.352       .  A
N2073     Co2835   2.072       .  S
N2074      N2102   1.311       .  A
N2074     Co2092   2.005       .  S
H2075      C2098   1.077       .  S
H2076      C2093   1.081       .  S
N2078     Co2092   2.098       .  S
N2079     Co2088   1.985   1_455  S
C2080      N2084   1.330       .  A
C2080      C2094   1.510       .  S
C2080      C2281   1.526       .  S
C2081      H2085   1.079       .  S
C2081      C2100   1.445       .  S
N2082      C2093   1.352       .  A
N2082     Co2872   2.077   1_545  S
C2086      N2102   1.326       .  A
C2086      C2098   1.481       .  S
C2086      C2166   1.508       .  S
Co2088    Cl2879   2.450       .  S
N2089      C2100   1.376       .  A
C2090      C2150   1.500       .  S
N2091      C2850   1.328   1_554  A
Co2092     N2862   2.077       .  S
Co2092    Cl2879   2.481       .  S
Cl2099    Co2868   2.439   1_545  S
Cl2099    Co2872   2.487   1_545  S
C2100      C2265   1.547       .  S
C2103      C2105   1.589       .  S
C2103      C2107   1.588       .  S
C2103      C2106   1.602       .  S
C2103      C2127   1.881       .  S
C2104      C2108   1.573       .  S
C2104      C2110   1.560       .  S
C2104      C2109   1.581       .  S
C2104      C2126   1.854       .  S
C2105      C2113   1.374       .  A
C2105      C2108   1.483       .  A
C2106      C2117   1.391       .  A
C2106      C2109   1.478       .  A
C2107      C2121   1.381       .  A
C2107      C2110   1.466       .  A
C2108      C2111   1.373       .  A
C2109      C2115   1.379       .  A
C2110      C2118   1.365       .  A
C2111      N2112   1.353       .  A
C2111      H2124   1.079       .  S
N2112      C2113   1.352       .  A
N2112      C2233   1.437       .  S
C2113      H2114   1.076       .  S
C2115      N2116   1.350       .  A
C2115      H2125   1.077       .  S
N2116      C2117   1.358       .  A
N2116      C2201   1.445       .  S
C2117      H2123   1.069       .  S
C2118      N2119   1.353       .  A
C2118      H2120   1.083       .  S
N2119      C2121   1.356       .  A
N2119      C2217   1.429       .  S
C2121      H2122   1.077       .  S
C2126      C2128   1.594   1_556  S
C2126      C2130   1.569   1_556  S
C2126      C2129   1.552   1_556  S
C2127      C2131   1.589       .  S
C2127      C2133   1.593       .  S
C2127      C2132   1.595       .  S
C2128      C2136   1.390       .  A
C2129      C2140   1.364   1_554  A
C2130      C2144   1.363   1_554  A
C2131      C2134   1.382       .  A
C2132      C2138   1.387       .  A
C2133      C2141   1.387       .  A
C2134      H2147   1.081       .  S
N2135      C2136   1.366       .  A
C2136      H2137   1.079   1_554  S
C2138      H2148   1.080       .  S
N2139      C2140   1.341   1_554  A
C2140      H2146   1.080       .  S
C2141      H2143   1.082       .  S
N2142      C2144   1.352   1_554  A
C2144      H2145   1.069       .  S
C2149      C2150   1.410       .  A
C2149      C2154   1.391       .  A
C2149      H2156   1.080       .  S
C2150      C2151   1.418       .  A
C2151      C2158   1.503       .  S
C2151      C2152   1.421       .  A
C2152      C2153   1.411       .  A
C2152      H2157   1.083       .  S
C2153      C2154   1.404       .  A
C2154      C2155   1.509       .  S
C2155      H2159   1.111       .  S
C2155      H2160   1.109       .  S
C2155      H2161   1.109       .  S
C2158      H2162   1.108       .  S
C2158      H2163   1.107       .  S
C2158      H2164   1.111       .  S
C2165      C2166   1.409       .  A
C2166      C2167   1.438       .  A
C2167      C2174   1.513       .  S
C2167      C2168   1.404       .  A
C2168      C2169   1.390       .  A
C2168      H2173   1.084       .  S
C2170      C2171   1.502       .  S
C2171      H2175   1.111       .  S
C2171      H2176   1.110   1_554  S
C2171      H2177   1.110       .  S
C2174      H2178   1.110       .  S
C2174      H2179   1.111       .  S
C2174      H2180   1.111       .  S
C2181      C2182   1.398       .  A
C2181      C2186   1.416       .  A
C2181      H2188   1.084       .  S
C2182      C2183   1.411       .  A
C2183      C2190   1.504       .  S
C2183      C2184   1.416       .  A
C2184      C2185   1.414       .  A
C2184      H2189   1.083       .  S
C2185      C2186   1.431       .  A
C2186      C2187   1.503       .  S
C2187      H2191   1.111       .  S
C2187      H2192   1.104       .  S
C2187      H2193   1.106       .  S
C2190      H2194   1.110       .  S
C2190      H2196   1.111       .  S
C2197      C2198   1.411       .  A
C2197      C2202   1.412       .  A
C2197      H2204   1.084       .  S
C2198      C2199   1.421       .  A
C2199      C2206   1.507       .  S
C2199      C2200   1.408       .  A
C2200      C2201   1.403       .  A
C2200      H2205   1.084       .  S
C2201      C2202   1.406       .  A
C2202      C2203   1.501       .  S
C2203      H2207   1.110       .  S
C2203      H2208   1.110       .  S
C2203      H2209   1.110       .  S
C2206      H2211   1.111       .  S
C2206      H2212   1.111       .  S
C2213      C2214   1.393       .  A
C2213      C2218   1.385       .  A
C2213      H2220   1.086       .  S
C2214      C2215   1.410       .  A
C2215      C2222   1.505       .  S
C2215      C2216   1.408       .  A
C2216      C2217   1.404       .  A
C2216      H2221   1.083       .  S
C2217      C2218   1.413       .  A
C2218      C2219   1.506       .  S
C2219      H2223   1.106       .  S
C2219      H2224   1.105       .  S
C2219      H2225   1.106       .  S
C2222      H2226   1.110       .  S
C2222      H2227   1.111       .  S
C2222      H2228   1.111       .  S
C2229      C2230   1.411       .  A
C2229      C2234   1.398       .  A
C2229      H2236   1.085       .  S
C2230      C2231   1.413       .  A
C2231      C2238   1.505       .  S
C2231      C2232   1.404       .  A
C2232      C2233   1.408       .  A
C2232      H2237   1.082       .  S
C2233      C2234   1.405       .  A
C2234      C2235   1.505       .  S
C2235      H2239   1.109       .  S
C2235      H2240   1.110       .  S
C2235      H2241   1.108       .  S
C2238      H2242   1.109       .  S
C2238      H2243   1.109       .  S
C2238      H2244   1.111       .  S
C2245      C2246   1.387       .  A
C2245      C2250   1.394       .  A
C2245      H2252   1.084       .  S
C2246      C2247   1.420       .  A
C2247      C2254   1.506       .  S
C2247      C2248   1.396       .  A
C2248      C2249   1.396       .  A
C2248      H2253   1.082       .  S
C2249      C2250   1.429       .  A
C2250      C2251   1.507       .  S
C2251      H2255   1.110       .  S
C2251      H2256   1.103       .  S
C2251      H2257   1.107       .  S
C2254      H2258   1.109       .  S
C2254      H2259   1.100       .  S
C2254      H2260   1.111       .  S
C2261      C2262   1.415       .  A
C2261      C2266   1.435       .  A
C2261      H2268   1.083       .  S
C2262      C2263   1.403       .  A
C2263      C2270   1.502       .  S
C2263      C2264   1.410       .  A
C2264      C2265   1.418       .  A
C2264      H2269   1.073       .  S
C2265      C2266   1.422       .  A
C2266      C2267   1.493       .  S
C2267      H2271   1.109       .  S
C2267      H2272   1.096       .  S
C2267      H2273   1.098       .  S
C2270      H2274   1.108       .  S
C2270      H2275   1.106       .  S
C2270      H2276   1.110       .  S
C2277      C2278   1.418       .  A
C2277      C2282   1.430       .  A
C2277      H2284   1.083       .  S
C2278      C2279   1.406       .  A
C2279      C2286   1.500       .  S
C2279      C2280   1.401       .  A
C2280      C2281   1.416       .  A
C2280      H2285   1.083       .  S
C2281      C2282   1.413       .  A
C2282      C2283   1.497       .  S
C2283      H2287   1.110       .  S
C2283      H2288   1.095       .  S
C2283      H2289   1.094       .  S
C2286      H2290   1.090       .  S
C2286      H2291   1.111       .  S
C2286      H2292   1.111       .  S
C2293      C2294   1.411       .  A
C2293      C2298   1.433       .  A
C2294      C2295   1.414       .  A
C2295      C2302   1.502       .  S
C2295      C2296   1.429       .  A
C2296      C2297   1.423       .  A
C2296      H2301   1.080       .  S
C2297      C2298   1.429       .  A
C2298      C2299   1.498       .  S
C2299      H2303   1.111       .  S
C2299      H2304   1.107       .  S
C2299      H2305   1.106       .  S
C2302      H2306   1.111       .  S
C2302      H2307   1.111   1_556  S
C2302      H2308   1.111       .  S
C2309      C2310   1.400   1_554  A
C2309      C2314   1.394   1_554  A
C2310      C2311   1.403       .  A
C2311      C2318   1.504       .  S
C2311      C2312   1.400       .  A
C2312      C2313   1.411       .  A
C2312      H2317   1.080       .  S
C2313      C2314   1.420       .  A
C2314      C2315   1.500   1_556  S
C2315      H2320   1.105       .  S
C2318      H2322   1.104       .  S
C2318      H2323   1.111       .  S
C2318      H2324   1.109       .  S
C2325      H2332   1.084       .  S
C2326      C2327   1.416       .  A
C2327      C2334   1.512       .  S
C2327      C2328   1.404       .  A
C2328      C2329   1.403       .  A
C2328      H2333   1.083       .  S
C2329      C2330   1.405   1_556  A
C2331      H2335   1.106       .  S
C2331      H2336   1.103       .  S
C2331      H2337   1.100       .  S
C2334      H2338   1.104       .  S
C2334      H2339   1.102       .  S
C2334      H2340   1.110       .  S
C2341      C2343   1.618   1_554  S
C2341      C2345   1.562   1_554  S
C2341      C2344   1.550   1_554  S
C2341      C2365   1.889       .  S
C2342      C2346   1.643       .  S
C2342      C2348   1.569       .  S
C2342      C2347   1.614       .  S
C2342      C2364   1.908       .  S
C2343      C2351   1.406   1_556  A
C2343      C2736   1.482       .  A
C2344      C2355   1.365   1_556  A
C2344      C2737   1.479       .  A
C2345      C2359   1.361   1_556  A
C2345      C2738   1.471       .  A
C2346      C2733   1.483       .  A
C2346      C2349   1.414       .  A
C2347      C2734   1.477       .  A
C2347      C2353   1.383       .  A
C2348      C2735   1.470       .  A
C2348      C2356   1.371       .  A
C2349      N2350   1.370       .  A
C2349      H2362   1.070       .  S
N2350      C2741   1.371       .  A
N2350      C2684   1.495       .  S
C2351      N2740   1.367   1_554  A
C2351      H2352   1.074       .  S
C2353      N2744   1.348       .  A
C2353      H2363   1.076       .  S
N2354      C2743   1.339       .  A
N2354      C2355   1.329   1_556  A
N2354      C3106   1.419       .  S
C2355      H2361   1.079       .  S
C2356      N2747   1.358       .  A
C2356      H2358   1.079       .  S
N2357      C2746   1.366       .  A
N2357      C2359   1.358   1_556  A
N2357      C3090   1.438       .  S
C2359      H2360   1.081       .  S
C2364      C2366   1.565       .  S
C2364      C2368   1.637       .  S
C2364      C2367   1.610       .  S
C2365      C2369   1.548       .  S
C2365      C2371   1.599       .  S
C2365      C2370   1.581       .  S
C2366      C2374   1.367       .  A
C2366      C2369   1.463       .  A
C2367      C2378   1.378       .  A
C2367      C2370   1.475       .  A
C2368      C2382   1.401       .  A
C2368      C2371   1.491       .  A
C2369      C2372   1.349       .  A
C2370      C2376   1.402       .  A
C2371      C2379   1.386       .  A
C2372      N2373   1.346       .  A
C2372      H2385   1.080       .  S
N2373      C2374   1.350       .  A
N2373      C2636   1.414       .  S
C2374      H2375   1.074       .  S
C2376      N2377   1.343       .  A
C2376      H2386   1.077       .  S
N2377      C2378   1.346       .  A
N2377      C2668   1.455       .  S
C2378      H2384   1.053       .  S
C2379      N2380   1.363       .  A
C2379      H2381   1.083       .  S
N2380      C2382   1.375       .  A
N2380      C2652   1.465       .  S
C2382      H2383   1.082       .  S
C2387      N2405   1.362       .  A
C2387      C2424   1.457       .  S
C2387      C2620   1.503       .  S
N2388      N2405   1.339       .  A
N2388      N2410   1.336       .  A
C2389      N2414   1.351       .  A
C2389      H2434   1.074       .  S
C2389      C2427   1.451       .  S
H2390      C2431   1.074       .  S
C2391      N2805   1.365       .  A
C2391      H2420   1.069       .  S
C2391      C2395   1.458   1_655  S
Co2392     N2400   2.080       .  S
Co2392     N2432   2.056       .  S
Co2392     N2408   2.087       .  S
N2393      C2431   1.343       .  A
N2393      N2400   1.321       .  A
N2393     Co2394   2.209       .  S
Co2394     N2397   2.165       .  S
Co2394     N2414   2.062       .  S
N2396      N2403   1.321       .  A
N2396      N2426   1.327       .  A
N2396     Co2429   2.215       .  S
N2397      N2823   1.326       .  A
N2398      C2427   1.341       .  A
N2398      N2408   1.312       .  A
H2399      C2424   1.075       .  S
N2400      N2421   1.328       .  A
N2401      N2419   1.328       .  A
N2401      N2406   1.351       .  A
C2402      N2406   1.377       .  A
C2402      C2430   1.481       .  S
C2402      C2687   1.579       .  S
N2403      C2418   1.328       .  A
N2403     Co2425   2.003       .  S
C2404      N2432   1.340       .  A
C2404      H2438   1.063       .  S
N2408      N2414   1.291       .  A
N2409      C2435   1.344       .  A
N2409      N2411   1.297       .  A
N2409     Co2425   2.132       .  S
N2410      C2424   1.349       .  A
N2411      N2439   1.325       .  A
N2411     Co2429   2.025       .  S
H2412      C2435   1.077       .  S
H2413      C2430   1.076       .  S
N2415      C2781   1.380       .  A
N2415     Co2429   2.079   1_455  S
N2416      N2428   1.317   1_565  A
N2416     Co2425   2.014       .  S
C2417      N2421   1.356       .  A
C2417      C2431   1.471       .  S
C2417      C2719   1.497       .  S
C2418      H2422   1.080       .  S
C2418      C2437   1.445       .  S
N2419      C2430   1.371       .  A
C2423      N2439   1.328       .  A
C2423      C2435   1.422       .  S
C2423      C2604   1.458       .  S
N2426      C2437   1.363       .  A
C2427      C2588   1.475       .  S
N2433      N2787   1.331       .  A
C2437      C2703   1.473       .  S
C2440      N2458   1.352       .  A
C2440      C2477   1.470       .  S
C2440      C2575   1.504       .  S
N2441      N2458   1.331       .  A
N2441      N2463   1.334       .  A
C2442      N2467   1.314       .  A
C2442      H2487   1.080       .  S
C2442      C2480   1.428       .  S
H2443      C2484   1.075       .  S
C2444      N2468   1.324       .  A
C2444      H2473   1.080       .  S
C2444      C2448   1.443       .  S
Co2445     N2453   1.967       .  S
Co2445     N2485   2.031       .  S
Co2445     N2461   2.172       .  S
N2446      C2484   1.377       .  A
N2446      N2453   1.319       .  A
N2446     Co2447   2.224       .  S
Co2447     N2450   2.049       .  S
Co2447     N2467   1.961       .  S
N2449      N2456   1.322       .  A
N2449      N2479   1.357       .  A
N2449     Co2482   2.222       .  S
N2450      N2486   1.317       .  A
N2451      C2480   1.360       .  A
N2451      N2461   1.341       .  A
H2452      C2477   1.076   1_545  S
N2453      N2474   1.311       .  A
N2454      N2472   1.321       .  A
N2454      N2459   1.306       .  A
C2455      N2459   1.322       .  A
C2455      C2483   1.472       .  S
C2455      C2639   1.466       .  S
N2456      C2471   1.330       .  A
N2456     Co2478   1.971       .  S
C2457      N2875   1.362       .  A
C2457      H2491   1.079       .  S
N2461      N2467   1.308       .  A
N2462      C2488   1.353       .  A
N2462      N2464   1.324       .  A
N2462     Co2478   2.186       .  S
N2463      C2477   1.352       .  A
N2464      N2492   1.319       .  A
N2464     Co2482   2.000       .  S
H2465      C2488   1.068       .  S
H2466      C2483   1.081       .  S
N2468     Co2482   2.059   1_545  S
N2469      N2871   1.324       .  A
N2469     Co2478   1.938   1_455  S
C2470      N2474   1.330       .  A
C2470      C2484   1.507       .  S
C2470      C2671   1.518       .  S
C2471      H2475   1.081       .  S
C2471      C2490   1.442       .  S
N2472      C2483   1.347       .  A
C2476      N2492   1.334       .  A
C2476      C2488   1.475       .  S
C2476      C2556   1.507       .  S
N2479      C2490   1.386       .  A
C2480      C2540   1.487       .  S
N2481      N2859   1.325       .  A
N2485      C2847   1.356       .  A
C2490      C2655   1.545       .  S
C2493      C2495   1.586       .  S
C2493      C2497   1.578       .  S
C2493      C2496   1.603       .  S
C2493      C2517   1.877       .  S
C2494      C2498   1.600       .  S
C2494      C2500   1.569       .  S
C2494      C2499   1.588       .  S
C2494      C2516   1.929       .  S
C2495      C2503   1.375       .  A
C2495      C2498   1.478       .  A
C2496      C2507   1.385       .  A
C2496      C2499   1.488       .  A
C2497      C2511   1.379       .  A
C2497      C2500   1.480       .  A
C2498      C2501   1.382       .  A
C2499      C2505   1.379       .  A
C2500      C2508   1.355       .  A
C2501      N2502   1.364       .  A
C2501      H2514   1.077       .  S
N2502      C2503   1.357       .  A
N2502      C2623   1.445       .  S
C2503      H2504   1.081       .  S
C2505      N2506   1.340       .  A
C2505      H2515   1.078       .  S
N2506      C2507   1.351       .  A
N2506      C2591   1.432       .  S
C2507      H2513   1.079       .  S
C2508      N2509   1.338       .  A
C2508      H2510   1.069       .  S
N2509      C2511   1.347       .  A
N2509      C2607   1.425       .  S
C2511      H2512   1.078       .  S
C2516      C2518   1.599       .  S
C2516      C2520   1.617       .  S
C2516      C2519   1.572       .  S
C2517      C2521   1.578       .  S
C2517      C2523   1.607       .  S
C2517      C2522   1.596       .  S
C2518      C2526   1.391       .  A
C2518      C2911   1.477       .  A
C2519      C2530   1.372       .  A
C2519      C2912   1.477       .  A
C2520      C2534   1.384       .  A
C2520      C2913   1.483       .  A
C2521      C2908   1.473       .  A
C2521      C2524   1.374       .  A
C2522      C2909   1.473       .  A
C2522      C2528   1.380       .  A
C2523      C2910   1.470       .  A
C2523      C2531   1.395       .  A
C2524      N2915   1.354       .  A
C2524      H2537   1.081       .  S
N2525      C2914   1.354       .  A
N2525      C2526   1.362       .  A
N2525      C2962   1.447       .  S
C2526      H2527   1.079       .  S
C2528      N2919   1.356       .  A
C2528      H2538   1.072       .  S
N2529      C2918   1.358       .  A
N2529      C2530   1.337       .  A
N2529      C2933   1.436       .  S
C2530      H2536   1.074       .  S
C2531      N2922   1.367       .  A
C2531      H2533   1.076       .  S
N2532      C2921   1.358       .  A
N2532      C2534   1.350       .  A
N2532      C2949   1.446       .  S
C2534      H2535   1.072       .  S
C2539      C2540   1.415       .  A
C2539      C2544   1.394       .  A
C2539      H2546   1.081       .  S
C2540      C2541   1.404       .  A
C2541      C2548   1.503   1_554  S
C2541      C2542   1.408       .  A
C2542      C2543   1.412       .  A
C2542      H2547   1.082       .  S
C2543      C2544   1.398       .  A
C2543      N2919   1.434       .  S
C2544      C2545   1.506       .  S
C2545      H2549   1.108       .  S
C2545      H2550   1.110       .  S
C2545      H2551   1.107       .  S
C2548      H2552   1.104       .  S
C2548      H2553   1.106   1_556  S
C2548      H2554   1.110       .  S
C2555      C2556   1.412       .  A
C2555      C2950   1.417       .  A
C2555      H2952   1.082   1_554  S
C2556      C2557   1.432       .  A
C2557      C2564   1.510       .  S
C2557      C2558   1.406       .  A
C2558      C2559   1.397       .  A
C2558      H2563   1.084       .  S
C2559      C2950   1.411       .  A
C2559      N2922   1.445       .  S
C2560      C2561   1.503       .  S
C2560      C2945   1.420       .  A
C2560      C2949   1.416       .  A
C2561      H2565   1.111       .  S
C2561      H2566   1.108       .  S
C2561      H2567   1.110       .  S
H2562      C2945   1.084       .  S
C2564      H2568   1.110       .  S
C2564      H2569   1.110       .  S
C2564      H2570   1.111       .  S
C2571      C2572   1.402       .  A
C2571      C2576   1.413       .  A
C2571      H2578   1.083       .  S
C2572      C2573   1.410       .  A
C2572      N2915   1.445       .  S
C2573      C2580   1.505       .  S
C2573      C2574   1.406       .  A
C2574      C2575   1.411       .  A
C2574      H2579   1.083       .  S
C2575      C2576   1.422       .  A
C2576      C2577   1.505       .  S
C2577      H2581   1.111       .  S
C2577      H2582   1.109       .  S
C2577      H2583   1.107   1_565  S
C2580      H2584   1.111       .  S
C2580      H2975   1.108       .  S
C2580      H2586   1.111       .  S
H2585      C2970   1.110       .  S
C2587      C2588   1.401       .  A
C2587      C2592   1.402       .  A
C2587      H2594   1.081       .  S
C2588      C2589   1.412       .  A
C2589      C2596   1.503       .  S
C2589      C2590   1.406       .  A
C2590      C2591   1.401       .  A
C2590      H2595   1.083       .  S
C2591      C2592   1.409       .  A
C2592      C2593   1.504       .  S
C2593      H2597   1.111       .  S
C2593      H2598   1.109       .  S
C2593      H2599   1.110       .  S
C2596      H2601   1.110       .  S
C2596      H2602   1.110       .  S
C2603      C2604   1.398       .  A
C2603      C2608   1.394       .  A
C2603      H2610   1.085       .  S
C2604      C2605   1.414       .  A
C2605      C2612   1.504       .  S
C2605      C2606   1.401       .  A
C2606      C2607   1.400       .  A
C2606      H2611   1.084       .  S
C2607      C2608   1.413       .  A
C2608      C2609   1.505       .  S
C2609      H2613   1.108       .  S
C2609      H2614   1.109       .  S
C2609      H2615   1.106       .  S
C2612      H2616   1.109       .  S
C2612      H2617   1.110       .  S
C2612      H2618   1.111       .  S
C2619      C2620   1.409       .  A
C2619      C2624   1.412       .  A
C2619      H2626   1.084       .  S
C2620      C2621   1.429       .  A
C2621      C2628   1.508       .  S
C2621      C2622   1.401       .  A
C2622      C2623   1.397       .  A
C2622      H2627   1.084       .  S
C2623      C2624   1.414       .  A
C2624      C2625   1.503       .  S
C2625      H2629   1.110       .  S
C2625      H2630   1.108       .  S
C2625      H2631   1.109       .  S
C2628      H2632   1.101       .  S
C2628      H2633   1.107       .  S
C2628      H2634   1.111       .  S
C2635      C2636   1.382       .  A
C2635      C2640   1.390       .  A
C2635      H2642   1.084       .  S
C2636      C2637   1.421       .  A
C2637      C2644   1.512       .  S
C2637      C2638   1.388       .  A
C2638      C2639   1.393       .  A
C2638      H2643   1.083       .  S
C2639      C2640   1.434       .  A
C2640      C2641   1.513       .  S
C2641      H2645   1.111       .  S
C2641      H2646   1.109       .  S
C2641      H2647   1.110       .  S
C2644      H2648   1.104       .  S
C2644      H2649   1.101       .  S
C2644      H2650   1.111       .  S
C2651      C2652   1.415       .  A
C2651      C2656   1.433       .  A
C2651      H2658   1.083       .  S
C2652      C2653   1.406       .  A
C2653      C2660   1.503       .  S
C2653      C2654   1.409       .  A
C2654      C2655   1.419       .  A
C2654      H2659   1.077       .  S
C2655      C2656   1.418       .  A
C2656      C2657   1.490       .  S
C2657      H2661   1.109       .  S
C2657      H2662   1.086       .  S
C2657      H2663   1.096       .  S
C2660      H2664   1.110       .  S
C2660      H2665   1.107       .  S
C2660      H2666   1.110       .  S
C2667      C2668   1.413       .  A
C2667      C2672   1.422       .  A
C2667      H2674   1.083       .  S
C2668      C2669   1.408       .  A
C2669      C2676   1.506       .  S
C2669      C2670   1.403       .  A
C2670      C2671   1.417       .  A
C2670      H2675   1.083       .  S
C2671      C2672   1.414       .  A
C2672      C2673   1.492       .  S
C2673      H2677   1.111       .  S
C2673      H2678   1.097       .  S
C2673      H2679   1.088       .  S
C2676      H2680   1.093       .  S
C2676      H2681   1.111       .  S
C2676      H2682   1.111       .  S
C2683      C2684   1.417       .  A
C2683      C2688   1.442       .  A
C2683      H3080   1.083       .  S
C2684      C2685   1.420       .  A
C2685      C2692   1.502       .  S
C2685      C2686   1.439       .  A
C2686      C2687   1.426       .  A
C2686      H2691   1.082       .  S
C2687      C2688   1.434       .  A
C2688      C2689   1.503       .  S
C2689      H2693   1.111       .  S
C2689      H2694   1.106       .  S
C2689      H2695   1.107       .  S
H2690      C3073   1.083       .  S
C2692      H2696   1.111       .  S
C2692      H2697   1.110       .  S
C2692      H2698   1.111       .  S
C2699      C2700   1.403       .  A
C2699      C2704   1.390       .  A
C2699      H3096   1.079       .  S
C2700      C2701   1.408       .  A
C2700      N2747   1.433       .  S
C2701      C2708   1.506       .  S
C2701      C2702   1.398       .  A
C2702      C2703   1.409       .  A
C2702      H2707   1.081       .  S
C2703      C2704   1.402       .  A
C2704      C2705   1.495       .  S
C2705      H3099   1.109       .  S
C2705      H2710   1.106       .  S
C2705      H3101   1.108       .  S
H2706      C3089   1.081       .  S
C2708      H2712   1.108       .  S
C2708      H2713   1.110       .  S
C2708      H2714   1.109       .  S
H2709      C3095   1.109       .  S
H2711      C3095   1.110       .  S
C2715      C3106   1.389       .  A
C2715      C3110   1.386   1_556  A
C2715      H2722   1.085   1_556  S
C2716      C3105   1.395       .  A
C2716      C2717   1.411       .  A
C2716      N2744   1.438       .  S
C2717      C2724   1.507       .  S
C2717      C2718   1.412       .  A
C2718      C2719   1.407       .  A
C2718      H2723   1.083       .  S
C2719      C2720   1.414       .  A
C2720      C3111   1.491       .  S
C2720      C3105   1.399       .  A
C2721      C3110   1.492       .  S
C2721      H2725   1.100       .  S
C2721      H2726   1.109       .  S
C2721      H2727   1.105       .  S
C2724      H2728   1.101       .  S
C2724      H2729   1.111       .  S
C2724      H2730   1.110       .  S
C2731      C2733   1.636       .  S
C2731      C2735   1.551       .  S
C2731      C2734   1.551       .  S
C2731      C2755   1.885       .  S
C2732      C2736   1.634       .  S
C2732      C2738   1.581       .  S
C2732      C2737   1.587       .  S
C2732      C2754   1.902       .  S
C2733      C2741   1.418       .  A
C2734      C2745   1.383       .  A
C2735      C2749   1.364       .  A
C2736      C2739   1.403       .  A
C2737      C2743   1.363       .  A
C2738      C2746   1.371       .  A
C2739      N2740   1.367       .  A
C2739      H2752   1.068       .  S
N2740      C3074   1.482       .  S
C2741      H2742   1.078       .  S
C2743      H2753   1.072       .  S
N2744      C2745   1.335       .  A
C2745      H2751   1.081       .  S
C2746      H2748   1.080       .  S
N2747      C2749   1.348       .  A
C2749      H2750   1.082       .  S
C2754      C2756   1.569       .  S
C2754      C2758   1.619       .  S
C2754      C2757   1.634       .  S
C2755      C2759   1.547       .  S
C2755      C2761   1.608       .  S
C2755      C2760   1.582       .  S
C2756      C2764   1.379       .  A
C2756      C2759   1.459       .  A
C2757      C2768   1.403       .  A
C2757      C2760   1.479       .  A
C2758      C2772   1.395       .  A
C2758      C2761   1.485       .  A
C2759      C2762   1.351       .  A
C2760      C2766   1.401       .  A
C2761      C2769   1.392       .  A
C2762      N2763   1.343       .  A
C2762      H2775   1.076       .  S
N2763      C2764   1.352       .  A
N2763      C3026   1.422       .  S
C2764      H2765   1.076       .  S
C2766      N2767   1.346       .  A
C2766      H2776   1.078       .  S
N2767      C2768   1.355       .  A
N2767      C3058   1.463       .  S
C2768      H2774   1.060       .  S
C2769      N2770   1.366       .  A
C2769      H2771   1.081       .  S
N2770      C2772   1.370       .  A
N2770      C3042   1.464       .  S
C2772      H2773   1.082       .  S
C2777      N2795   1.342       .  A
C2777      C2814   1.473       .  S
C2777      C3010   1.485       .  S
N2778      N2795   1.323       .  A
N2778      N2800   1.337       .  A
C2779      N2804   1.343       .  A
C2779      H2824   1.075       .  S
C2779      C2817   1.445       .  S
H2780      C2821   1.072   1_554  S
C2781      H2810   1.070   1_455  S
C2781      C2785   1.441       .  S
Co2782     N2790   2.091       .  S
Co2782     N2822   2.088       .  S
Co2782     N2798   2.107       .  S
N2783      C2821   1.330       .  A
N2783      N2790   1.324       .  A
N2783     Co2784   2.166       .  S
Co2784     N2787   2.157       .  S
Co2784     N2804   2.049       .  S
N2786      N2793   1.316       .  A
N2786      N2816   1.325       .  A
N2786     Co2819   2.147       .  S
N2788      C2817   1.348       .  A
N2788      N2798   1.321       .  A
H2789      C2814   1.077       .  S
N2790      N2811   1.323       .  A
N2791      N2809   1.332       .  A
N2791      N2796   1.351       .  A
C2792      N2796   1.375       .  A
C2792      C2820   1.466       .  S
C2792      C3077   1.567       .  S
N2793      C2808   1.339       .  A
N2793     Co2815   2.076       .  S
C2794      N2822   1.342       .  A
C2794      H2828   1.059       .  S
N2798      N2804   1.296       .  A
N2799      C2825   1.357       .  A
N2799      N2801   1.297       .  A
N2799     Co2815   2.165       .  S
N2800      C2814   1.358       .  A
N2801      N2829   1.318       .  A
N2801     Co2819   2.019       .  S
H2802      C2825   1.077       .  S
H2803      C2820   1.072       .  S
N2805     Co2819   2.076       .  S
N2806      N2818   1.324       .  A
N2806     Co2815   2.023   1_545  S
C2807      N2811   1.354       .  A
C2807      C2821   1.461       .  S
C2807      C3109   1.473       .  S
C2808      H2812   1.074       .  S
C2808      C2827   1.456       .  S
N2809      C2820   1.363       .  A
C2813      N2829   1.338       .  A
C2813      C2825   1.450       .  S
C2813      C2994   1.458       .  S
N2816      C2827   1.350       .  A
C2817      C2978   1.488       .  S
C2827      C3093   1.485       .  S
C2830      N2848   1.358       .  A
C2830      C2867   1.469       .  S
C2830      C2965   1.519       .  S
N2831      N2848   1.338       .  A
N2831      N2853   1.334       .  A
C2832      N2857   1.320       .  A
C2832      H2877   1.079       .  S
C2832      C2870   1.438       .  S
H2833      C2874   1.081       .  S
C2834      N2858   1.339       .  A
C2834      H2863   1.078       .  S
C2834      C2838   1.464       .  S
Co2835     N2843   1.994       .  S
Co2835     N2875   2.068       .  S
Co2835     N2851   2.195       .  S
N2836      C2874   1.377       .  A
N2836      N2843   1.321       .  A
N2836     Co2837   2.207       .  S
Co2837     N2840   2.086       .  S
Co2837     N2857   1.962       .  S
N2839      N2846   1.318       .  A
N2839      N2869   1.355       .  A
N2839     Co2872   2.255       .  S
N2840      N2876   1.305       .  A
N2841      C2870   1.359       .  A
N2841      N2851   1.346       .  A
H2842      C2867   1.073   1_545  S
N2843      N2864   1.312       .  A
N2844      N2862   1.323       .  A
N2844      N2849   1.312       .  A
C2845      N2849   1.329       .  A
C2845      C2873   1.474       .  S
C2845      C3029   1.480       .  S
N2846      C2861   1.335       .  A
N2846     Co2868   1.976       .  S
C2847      H2881   1.080       .  S
N2851      N2857   1.317       .  A
N2852      C2878   1.367       .  A
N2852      N2854   1.324       .  A
N2852     Co2868   2.197       .  S
N2853      C2867   1.351       .  A
N2854      N2882   1.313       .  A
N2854     Co2872   2.014       .  S
H2855      C2878   1.077       .  S
H2856      C2873   1.081       .  S
N2858     Co2872   2.098   1_545  S
N2859     Co2868   1.975   1_455  S
C2860      N2864   1.332       .  A
C2860      C2874   1.510       .  S
C2860      C3061   1.530       .  S
C2861      H2865   1.078       .  S
C2861      C2880   1.444       .  S
N2862      C2873   1.351       .  A
C2866      N2882   1.329       .  A
C2866      C2878   1.481       .  S
C2866      C2946   1.512       .  S
N2869      C2880   1.377       .  A
C2870      C2930   1.500       .  S
C2880      C3045   1.546       .  S
C2883      C2885   1.592       .  S
C2883      C2887   1.583       .  S
C2883      C2886   1.601       .  S
C2883      C2907   1.884       .  S
C2884      C2888   1.572       .  S
C2884      C2890   1.567       .  S
C2884      C2889   1.579       .  S
C2884      C2906   1.858       .  S
C2885      C2893   1.375       .  A
C2885      C2888   1.483       .  A
C2886      C2897   1.388       .  A
C2886      C2889   1.480       .  A
C2887      C2901   1.377       .  A
C2887      C2890   1.469       .  A
C2888      C2891   1.372       .  A
C2889      C2895   1.378       .  A
C2890      C2898   1.369       .  A
C2891      N2892   1.353       .  A
C2891      H2904   1.080       .  S
N2892      C2893   1.354       .  A
N2892      C3013   1.436       .  S
C2893      H2894   1.077       .  S
C2895      N2896   1.349       .  A
C2895      H2905   1.076       .  S
N2896      C2897   1.357       .  A
N2896      C2981   1.443       .  S
C2897      H2903   1.069       .  S
C2898      N2899   1.355       .  A
C2898      H2900   1.082       .  S
N2899      C2901   1.354       .  A
N2899      C2997   1.428       .  S
C2901      H2902   1.078       .  S
C2906      C2908   1.598   1_556  S
C2906      C2910   1.567   1_556  S
C2906      C2909   1.561   1_556  S
C2907      C2911   1.586       .  S
C2907      C2913   1.597       .  S
C2907      C2912   1.596       .  S
C2908      C2916   1.389       .  A
C2909      C2920   1.367       .  A
C2910      C2924   1.365       .  A
C2911      C2914   1.380       .  A
C2912      C2918   1.387       .  A
C2913      C2921   1.392       .  A
C2914      H2927   1.081       .  S
N2915      C2916   1.366       .  A
C2916      H2917   1.080   1_554  S
C2918      H2928   1.080       .  S
N2919      C2920   1.347       .  A
C2920      H2926   1.080   1_554  S
C2921      H2923   1.082       .  S
N2922      C2924   1.350       .  A
C2924      H2925   1.072   1_554  S
C2929      C2930   1.410       .  A
C2929      C2934   1.391       .  A
C2929      H2936   1.079       .  S
C2930      C2931   1.418       .  A
C2931      C2938   1.501       .  S
C2931      C2932   1.419       .  A
C2932      C2933   1.410       .  A
C2932      H2937   1.083       .  S
C2933      C2934   1.404       .  A
C2934      C2935   1.510       .  S
C2935      H2939   1.111       .  S
C2935      H2940   1.109       .  S
C2935      H2941   1.109       .  S
C2938      H2942   1.108       .  S
C2938      H2943   1.105       .  S
C2938      H2944   1.111       .  S
C2945      C2946   1.410       .  A
C2946      C2947   1.438       .  A
C2947      C2954   1.512       .  S
C2947      C2948   1.405       .  A
C2948      C2949   1.391       .  A
C2948      H2953   1.084       .  S
C2950      C2951   1.502       .  S
C2951      H2955   1.111   1_554  S
C2951      H2956   1.110   1_554  S
C2951      H2957   1.110       .  S
C2954      H2958   1.110       .  S
C2954      H2959   1.111       .  S
C2954      H2960   1.111       .  S
C2961      C2962   1.396       .  A
C2961      C2966   1.413       .  A
C2961      H2968   1.084       .  S
C2962      C2963   1.409       .  A
C2963      C2970   1.504       .  S
C2963      C2964   1.412       .  A
C2964      C2965   1.413       .  A
C2964      H2969   1.083       .  S
C2965      C2966   1.430       .  A
C2966      C2967   1.502       .  S
C2967      H2971   1.111       .  S
C2967      H2972   1.106       .  S
C2967      H2973   1.105       .  S
C2970      H2974   1.110       .  S
C2970      H2976   1.111       .  S
C2977      C2978   1.409       .  A
C2977      C2982   1.409       .  A
C2977      H2984   1.084       .  S
C2978      C2979   1.420       .  A
C2979      C2986   1.509       .  S
C2979      C2980   1.407       .  A
C2980      C2981   1.405       .  A
C2980      H2985   1.084       .  S
C2981      C2982   1.405       .  A
C2982      C2983   1.501       .  S
C2983      H2987   1.111       .  S
C2983      H2988   1.110       .  S
C2983      H2989   1.110       .  S
C2986      H2991   1.106       .  S
C2986      H2992   1.111       .  S
C2993      C2994   1.394       .  A
C2993      C2998   1.386       .  A
C2993      H3000   1.086       .  S
C2994      C2995   1.409       .  A
C2995      C3002   1.505       .  S
C2995      C2996   1.407       .  A
C2996      C2997   1.403       .  A
C2996      H3001   1.083       .  S
C2997      C2998   1.413       .  A
C2998      C2999   1.506       .  S
C2999      H3003   1.106       .  S
C2999      H3004   1.106       .  S
C2999      H3005   1.106       .  S
C3002      H3006   1.110       .  S
C3002      H3007   1.111   1_565  S
C3002      H3008   1.111       .  S
C3009      C3010   1.411       .  A
C3009      C3014   1.399       .  A
C3009      H3016   1.085       .  S
C3010      C3011   1.416       .  A
C3011      C3018   1.505       .  S
C3011      C3012   1.403       .  A
C3012      C3013   1.406       .  A
C3012      H3017   1.083       .  S
C3013      C3014   1.404       .  A
C3014      C3015   1.504       .  S
C3015      H3019   1.109       .  S
C3015      H3020   1.108       .  S
C3015      H3021   1.109       .  S
C3018      H3022   1.108       .  S
C3018      H3023   1.109       .  S
C3018      H3024   1.111       .  S
C3025      C3026   1.387       .  A
C3025      C3030   1.395       .  A
C3025      H3032   1.084       .  S
C3026      C3027   1.418       .  A
C3027      C3034   1.506       .  S
C3027      C3028   1.395       .  A
C3028      C3029   1.397       .  A
C3028      H3033   1.081       .  S
C3029      C3030   1.430       .  A
C3030      C3031   1.507       .  S
C3031      H3035   1.110       .  S
C3031      H3036   1.105       .  S
C3031      H3037   1.108       .  S
C3034      H3038   1.108       .  S
C3034      H3039   1.102       .  S
C3034      H3040   1.111       .  S
C3041      C3042   1.413       .  A
C3041      C3046   1.433       .  A
C3041      H3048   1.083       .  S
C3042      C3043   1.403       .  A
C3043      C3050   1.502       .  S
C3043      C3044   1.410       .  A
C3044      C3045   1.419       .  A
C3044      H3049   1.073       .  S
C3045      C3046   1.421       .  A
C3046      C3047   1.492       .  S
C3047      H3051   1.109       .  S
C3047      H3052   1.096       .  S
C3047      H3053   1.101       .  S
C3050      H3054   1.108       .  S
C3050      H3055   1.106       .  S
C3050      H3056   1.110       .  S
C3057      C3058   1.418       .  A
C3057      C3062   1.431       .  A
C3057      H3064   1.083       .  S
C3058      C3059   1.408       .  A
C3059      C3066   1.507       .  S
C3059      C3060   1.406       .  A
C3060      C3061   1.417       .  A
C3060      H3065   1.083       .  S
C3061      C3062   1.415       .  A
C3062      C3063   1.499       .  S
C3063      H3067   1.110       .  S
C3063      H3068   1.093       .  S
C3063      H3069   1.095       .  S
C3066      H3070   1.100       .  S
C3066      H3071   1.110       .  S
C3066      H3072   1.111       .  S
C3073      C3074   1.411       .  A
C3073      C3078   1.435       .  A
C3074      C3075   1.415       .  A
C3075      C3082   1.503       .  S
C3075      C3076   1.432       .  A
C3076      C3077   1.425       .  A
C3076      H3081   1.081       .  S
C3077      C3078   1.431       .  A
C3078      C3079   1.497       .  S
C3079      H3083   1.111       .  S
C3079      H3084   1.105       .  S
C3079      H3085   1.106       .  S
C3082      H3086   1.110       .  S
C3082      H3087   1.111   1_556  S
C3082      H3088   1.111       .  S
C3089      C3090   1.399   1_554  A
C3089      C3094   1.393   1_554  A
C3090      C3091   1.403       .  A
C3091      C3098   1.503       .  S
C3091      C3092   1.400       .  A
C3092      C3093   1.411       .  A
C3092      H3097   1.081       .  S
C3093      C3094   1.419       .  A
C3094      C3095   1.499   1_556  S
C3095      H3100   1.107       .  S
C3098      H3102   1.104       .  S
C3098      H3103   1.111       .  S
C3098      H3104   1.107       .  S
C3105      H3112   1.084       .  S
C3106      C3107   1.417       .  A
C3107      C3114   1.511       .  S
C3107      C3108   1.404       .  A
C3108      C3109   1.400       .  A
C3108      H3113   1.083       .  S
C3109      C3110   1.407   1_556  A
C3111      H3115   1.106       .  S
C3111      H3116   1.104       .  S
C3111      H3117   1.098       .  S
C3114      H3118   1.100       .  S
C3114      H3119   1.111       .  S
C3114      H3120   1.110       .  S
