geometry optimzed in LAMMPS
_audit_creation_date              2020-11-30 
_audit_creation_method            'lammps2cif' 
_symmetry_space_group_name_H-M    'P1' 
_symmetry_Int_Tables_number       1 
_symmetry_cell_setting            triclinic 
loop_ 
_symmetry_equiv_pos_as_xyz 
  x,y,z 
_cell_length_a                    55.031269474783876 
_cell_length_b                    55.12763259897357 
_cell_length_c                    26.44876001436275 
_cell_angle_alpha                 89.26845576144282 
_cell_angle_beta                  90.67189784293879 
_cell_angle_gamma                 120.45817917249842 
loop_ 
_atom_site_label 
_atom_site_type_symbol 
_atom_site_fract_x 
_atom_site_fract_y 
_atom_site_fract_z 
_atom_site_charge 
O1          O  0.34181457  0.12529521  0.58133794    -0.86970
O2          O  0.28790027  0.11909923  0.85024512    -0.87140
O3          O  0.32896723  0.08483802  0.75089949    -0.88810
O4          O  0.26286418  0.08847955  0.67514961    -0.87570
O5          O  0.25275434  0.12297405  0.65341321    -0.87160
O6          O  0.37446904  0.11739918  0.77369162    -0.88530
O7          O  0.27574388  0.08856186  0.78361117    -0.87000
O8          O  0.31611916  0.08980843  0.63814322    -0.86590
Zr9        Zr  0.30874898  0.11075418  0.71412357     2.84310
O10         O  0.29342888  0.13932186  0.74889148    -1.08570
O11         O  0.35459178  0.13922063  0.68494486    -1.09300
C12         C  0.32885719  0.09927766  0.59527639     1.06130
C13         C  0.27222992  0.09540403  0.82832422     1.06080
C14         C  0.35291980  0.09190684  0.77144996     1.09060
C15         C  0.24757929  0.09713041  0.65343192     1.06840
H16         H  0.33668778  0.12407511  0.80922503     0.32400
O17         O  0.33748070  0.13635639  0.78230938    -1.29520
H18         H  0.29748126  0.12969012  0.62307258     0.32070
O19         O  0.30844432  0.14063882  0.65155305    -1.31200
O20         O  0.33764606  0.20860612  0.85762270    -0.86970
O21         O  0.38498202  0.21447908  0.58386543    -0.88470
O22         O  0.39185975  0.16132354  0.83967112    -0.87050
O23         O  0.25999622  0.16675005  0.75075268    -0.87090
O24         O  0.30368985  0.18676925  0.60087039    -0.86810
O25         O  0.41603277  0.16784476  0.69093881    -0.86610
O26         O  0.41300897  0.24792533  0.75285494    -0.86980
O27         O  0.34315103  0.24807772  0.68939969    -0.86450
O28         O  0.41700414  0.21236328  0.78979622    -0.87510
O29         O  0.29728841  0.21560596  0.66952663    -0.86670
O30         O  0.35582735  0.16130075  0.88253126    -0.87070
O31         O  0.39714888  0.16757094  0.61336168    -0.86790
O32         O  0.31969273  0.16429370  0.55526554    -0.86440
O33         O  0.27706933  0.16377244  0.82874638    -0.86850
O34         O  0.36269990  0.24417109  0.80046069    -0.87140
O35         O  0.39427290  0.24728304  0.64448441    -0.88480
Zr36       Zr  0.32227365  0.16453276  0.81764801     2.83100
Zr37       Zr  0.35414529  0.16912515  0.62149066     2.83500
Zr38       Zr  0.38323292  0.16551693  0.75271118     2.84090
Zr39       Zr  0.29174697  0.16865198  0.68595693     2.83360
Zr40       Zr  0.36619790  0.22340223  0.72090193     2.84220
O41         O  0.33734802  0.19701037  0.65470974    -1.09050
O42         O  0.36694397  0.19377790  0.78479407    -1.08550
C43         C  0.35148941  0.23462284  0.84445801     1.06110
C44         C  0.39785468  0.23997607  0.59996291     1.08720
C45         C  0.37949941  0.16079632  0.88074328     1.06280
C46         C  0.25829257  0.16452302  0.79934995     1.06640
C47         C  0.30137762  0.17186198  0.56281330     1.06220
C48         C  0.41609501  0.16749024  0.64224461     1.05770
C49         C  0.42384185  0.23858610  0.78496635     1.06200
C50         C  0.31864084  0.24120507  0.67145364     1.05710
H51         H  0.40285714  0.20779500  0.67755593     0.32390
O52         O  0.38370690  0.19577486  0.68879809    -1.30150
H53         H  0.31398360  0.20587226  0.76712738     0.32410
O54         O  0.32095351  0.19435601  0.75369225    -1.31530
C55         C  0.47832656  0.48250708  0.47114142     0.01800
C56         C  0.50114512  0.47765652  0.46578870     0.01800
C57         C  0.02882410  0.00028923  0.45633175     0.01800
C58         C  0.03367459  0.02808391  0.45416011     0.01800
C59         C  0.01074597  0.03285746  0.45841814     0.01800
C60         C  0.48280045  0.00991047  0.46279090     0.01800
C61         C  0.00990567  0.16652463  0.55362286     0.02640
C62         C  0.01099878  0.14206817  0.54674983    -0.13510
C63         C  0.03132781  0.14231202  0.51492969     0.00140
C64         C  0.05017206  0.16739840  0.48939682    -0.12030
C65         C  0.04821470  0.19156568  0.49552948     0.02640
C66         C  0.02876287  0.19129014  0.52877284    -0.11450
H67         H  0.99460236  0.12244929  0.56292988     0.08230
H68         H  0.06498672  0.16765690  0.46244084     0.05760
H69         H  0.02667747  0.20976314  0.53199034     0.05610
C70         C  0.15612301  0.46527713  0.47648906     0.02640
C71         C  0.17753595  0.98846991  0.50280942    -0.13510
C72         C  0.17480134  0.01184038  0.51326887     0.00140
C73         C  0.15082227  0.01217517  0.49744467    -0.12030
C74         C  0.12760301  0.98813532  0.47753426     0.02640
C75         C  0.13074200  0.46498974  0.46481444    -0.11450
H76         H  0.19655671  0.98856945  0.51429899     0.08230
H77         H  0.14933016  0.03067925  0.50487637     0.05760
H78         H  0.11389220  0.44726028  0.44546444     0.05610
C79         C  0.34970608  0.03413048  0.45104726     0.02640
C80         C  0.37501939  0.03403303  0.45768208    -0.13510
C81         C  0.38093872  0.01634433  0.42902353     0.00140
C82         C  0.36151345  0.99986510  0.39065671    -0.12030
C83         C  0.33653696  0.00074734  0.38217755     0.02640
C84         C  0.33075284  0.01765846  0.41300428    -0.11450
H85         H  0.38999445  0.04762552  0.48593802     0.08230
H86         H  0.36536292  0.48582227  0.36834514     0.05760
H87         H  0.31083808  0.01706010  0.40873888     0.05610
C88         C  0.00969018  0.34713498  0.38916783     0.02640
C89         C  0.49380790  0.32352175  0.42114863    -0.13510
C90         C  0.47329851  0.32300141  0.45379199     0.00140
C91         C  0.46897677  0.34588186  0.45345870    -0.12030
C92         C  0.48519158  0.36931390  0.42321978     0.02640
C93         C  0.00488119  0.36969985  0.39016829    -0.11450
H94         H  0.49814152  0.30642801  0.42203323     0.08230
H95         H  0.45405964  0.34631849  0.47936951     0.05760
H96         H  0.01797459  0.38849108  0.36788367     0.05610
C97         C  0.19947085  0.14562219  0.45399929     0.02640
C98         C  0.17265670  0.12112779  0.45811115    -0.13510
C99         C  0.14849871  0.12122715  0.44023744     0.00140
C100        C  0.15125848  0.14579148  0.41871584    -0.12030
C101        C  0.17765798  0.17039738  0.41586705     0.02640
C102        C  0.20176863  0.17003240  0.43225904    -0.11450
H103        H  0.17052385  0.10246743  0.47648166     0.08230
H104        H  0.13264877  0.14595143  0.40524063     0.05760
H105        H  0.22214184  0.18923716  0.43083722     0.05610
C106        C  0.33515460  0.33825497  0.55546460     0.02640
C107        C  0.36269102  0.36235275  0.55111475    -0.13510
C108        C  0.36970584  0.38110815  0.50899071     0.00140
C109        C  0.35047324  0.37188217  0.46876946    -0.12030
C110        C  0.32242456  0.35183968  0.47621792     0.02640
C111        C  0.31456785  0.33540466  0.52006171    -0.11450
H112        H  0.37863830  0.36545334  0.57845374     0.08230
H113        H  0.35664262  0.38130887  0.43173941     0.05760
H114        H  0.29267087  0.31922129  0.52479915     0.05610
O115        O  0.13180013  0.29948282  0.36642733    -0.86970
O116        O  0.11543845  0.31859864  0.08589747    -0.87140
O117        O  0.09172728  0.32894571  0.25861122    -0.88810
O118        O  0.08441041  0.25552549  0.20382200    -0.87570
O119        O  0.11687500  0.24362379  0.18011089    -0.87160
O120        O  0.12524278  0.37581198  0.26192447    -0.88530
O121        O  0.08587757  0.30381614  0.15387321    -0.87000
O122        O  0.09491439  0.28075462  0.31056751    -0.86590
Zr123      Zr  0.11273616  0.30356901  0.22790510     2.84310
O124        O  0.13618496  0.29537243  0.16346057    -1.08570
O125        O  0.14409032  0.33973136  0.28049692    -1.09300
C126        C  0.10587844  0.28256600  0.35492964     1.06130
C127        C  0.09156739  0.31069409  0.10671599     1.06080
C128        C  0.09974900  0.35460149  0.26859757     1.09060
C129        C  0.09123106  0.23893625  0.18324031     1.06840
H130        H  0.12713380  0.35107208  0.16717164     0.32400
O131        O  0.13947140  0.34495771  0.18093804    -1.29520
H132        H  0.13155880  0.27151274  0.28225850     0.32070
O133        O  0.14220672  0.28916397  0.26434592    -1.31200
O134        O  0.20550911  0.36541938  0.06695049    -0.86970
O135        O  0.22042034  0.34301888  0.34977152    -0.88470
O136        O  0.16692698  0.40486890  0.15890731    -0.87050
O137        O  0.16229564  0.26579515  0.11504614    -0.87090
O138        O  0.17080535  0.25791937  0.27214967    -0.86810
O139        O  0.17319109  0.39662819  0.31851742    -0.86610
O140        O  0.25231635  0.40754574  0.22914497    -0.86980
O141        O  0.24598122  0.33246607  0.18037433    -0.86450
O142        O  0.22056332  0.42113510  0.25033199    -0.87510
O143        O  0.21142217  0.28585618  0.17470226    -0.86670
O144        O  0.16001323  0.37669759  0.09061419    -0.87070
O145        O  0.17399925  0.36387126  0.37196123    -0.86790
O146        O  0.17669439  0.28428903  0.34298053    -0.86440
O147        O  0.15565548  0.29515269  0.06238753    -0.86850
O148        O  0.24199561  0.38081121  0.12362724    -0.87140
O149        O  0.25073360  0.35860952  0.28251682    -0.88480
Zr150      Zr  0.16291825  0.33596621  0.11585188     2.83100
Zr151      Zr  0.17359195  0.32595870  0.31794064     2.83500
Zr152      Zr  0.17122615  0.38122929  0.23392521     2.84090
Zr153      Zr  0.16630968  0.28204271  0.19933250     2.83360
Zr154      Zr  0.22456991  0.35883658  0.20688467     2.84220
O155        O  0.19759130  0.31774868  0.25352860    -1.09050
O156        O  0.19483825  0.37263067  0.16935496    -1.08550
C157        C  0.23182298  0.38075599  0.07921068     1.06110
C158        C  0.24476912  0.35215892  0.32976014     1.08720
C159        C  0.16186008  0.39856891  0.11157187     1.06280
C160        C  0.15625531  0.27212254  0.07183675     1.06640
C161        C  0.17551717  0.26310104  0.31975885     1.06220
C162        C  0.17381617  0.38719328  0.36282266     1.05770
C163        C  0.24590078  0.42470533  0.24887210     1.06200
C164        C  0.23704973  0.30663684  0.16931328     1.05710
H165        H  0.21327128  0.37991014  0.29590594     0.32390
O166        O  0.20053348  0.36670472  0.27132495    -1.30150
H167        H  0.20296456  0.32058703  0.12519279     0.32410
O168        O  0.19325415  0.32332234  0.15255681    -1.31530
C169        C  0.44859649  0.14054175  0.02409601     0.02640
C170        C  0.47109224  0.16149492  0.05343368    -0.13510
C171        C  0.49342203  0.15779483  0.07036170     0.00140
C172        C  0.49354054  0.13350563  0.05712656    -0.12030
C173        C  0.47154489  0.11208354  0.02892609     0.02640
C174        C  0.44874368  0.11550407  0.01329068    -0.11450
H175        H  0.47179803  0.18108855  0.06121272     0.08230
H176        H  0.01152977  0.13160921  0.06836571     0.05760
H177        H  0.43174037  0.09932691  0.99107019     0.05610
C178        C  0.49036632  0.01937647  0.99000029     0.01800
C179        C  0.46765792  0.49157876  0.99676222     0.01800
C180        C  0.47279341  0.46900325  0.00349240     0.01800
C181        C  0.00038094  0.47373628  0.99578052     0.01800
C182        C  0.02250316  0.50134840  0.98406375     0.01800
C183        C  0.01768270  0.02417815  0.98110522     0.01800
C184        C  0.14551373  0.47153942  0.97675408     0.02640
C185        C  0.12213273  0.47511160  0.97830552    -0.13510
C186        C  0.12334865  0.49875380  0.95569203     0.00140
C187        C  0.14804617  0.01908969  0.93219639    -0.12030
C188        C  0.17148712  0.01553543  0.93021566     0.02640
C189        C  0.16970561  0.49127559  0.95108707    -0.11450
H190        H  0.10337104  0.46005388  0.99861551     0.08230
H191        H  0.14920139  0.03798404  0.91691431     0.05760
H192        H  0.18777331  0.48846499  0.94963018     0.05610
C193        C  0.01362308  0.33489631  0.00679498     0.02640
C194        C  0.49605995  0.31578803  0.97077211    -0.13510
C195        C  0.48197343  0.32319278  0.93551766     0.00140
C196        C  0.48514873  0.35018314  0.93703144    -0.12030
C197        C  0.50244988  0.36972353  0.97444459     0.02640
C198        C  0.01692016  0.36177846  0.00881989    -0.11450
H199        H  0.49465986  0.29547260  0.96823577     0.08230
H200        H  0.47392034  0.35561355  0.90962125     0.05760
H201        H  0.03142602  0.37674753  0.03616005     0.05610
C202        C  0.13767637  0.18406764  0.93005078     0.02640
C203        C  0.16133492  0.18540583  0.90731665    -0.13510
C204        C  0.16026432  0.16075066  0.89022165     0.00140
C205        C  0.13528429  0.13457416  0.89622997    -0.12030
C206        C  0.11165768  0.13284122  0.91954463     0.02640
C207        C  0.11267539  0.15768233  0.93430106    -0.11450
H208        H  0.18104128  0.20527919  0.90560418     0.08370
H209        H  0.13476790  0.11544393  0.88522782     0.05760
H210        H  0.09468356  0.15615863  0.95366957     0.05610
C211        C  0.33897018  0.49118787  0.86844654     0.02640
C212        C  0.31342268  0.47189614  0.89305875    -0.13510
C213        C  0.31237500  0.45097288  0.92590395     0.00140
C214        C  0.33658087  0.44907760  0.93276685    -0.12030
C215        C  0.36200044  0.46878974  0.91075623     0.02640
C216        C  0.36309680  0.48941840  0.87825118    -0.11450
H217        H  0.29513000  0.47429733  0.88933358     0.08230
H218        H  0.33645026  0.43416290  0.96011172     0.05760
H219        H  0.38344631  0.00585597  0.86471081     0.05610
C220        C  0.34838072  0.30889193  0.99127127     0.02640
C221        C  0.33060500  0.29926478  0.03297138    -0.13510
C222        C  0.33377646  0.31802761  0.07097937     0.00140
C223        C  0.35783048  0.34532294  0.07145062    -0.12030
C224        C  0.37694920  0.35493339  0.03035998     0.02640
C225        C  0.36936596  0.33706056  0.98852826    -0.11450
H226        H  0.31273764  0.27795177  0.03340376     0.08230
H227        H  0.36002971  0.35908589  0.10201428     0.05760
H228        H  0.37980495  0.34472359  0.95300772     0.05610
C229        C  0.43273865  0.47446282  0.92784271    -0.09640
C230        C  0.43959762  0.48490059  0.97744841     0.06550
C231        C  0.42034417  0.48934409  0.00476304    -0.03410
C232        C  0.39483268  0.48301589  0.98234455    -0.07860
C233        C  0.38823854  0.47280933  0.93290081     0.05670
C234        C  0.40731137  0.46855425  0.90535071    -0.02880
Br235      Br  0.39940515  0.45470508  0.83746144    -0.02580
H236        H  0.44750374  0.47125629  0.90629517     0.09580
H237        H  0.38020482  0.48675079  0.00319303     0.07600
Br238      Br  0.42689877  0.50453062  0.07142863    -0.03010
C239        C  0.06039692  0.07066654  0.00095928    -0.09640
C240        C  0.04088668  0.05261406  0.96506950     0.06550
C241        C  0.04475318  0.06100418  0.91374399    -0.03410
C242        C  0.06792406  0.08703791  0.89915987    -0.07860
C243        C  0.08741540  0.10513407  0.93522375     0.05670
C244        C  0.08345550  0.09664581  0.98652491    -0.02880
Br245      Br  0.10973384  0.11916834  0.03819948    -0.02580
H246        H  0.05794040  0.06435914  0.04032676     0.09580
H247        H  0.07068819  0.09320985  0.85964786     0.07600
Br248      Br  0.01912442  0.03726309  0.86232780    -0.03010
C249        C  0.05914000  0.50416860  0.92681133    -0.09640
C250        C  0.05099918  0.50614371  0.97587267     0.06550
C251        C  0.06841915  0.00897326  0.01727384    -0.03410
C252        C  0.09259072  0.00749809  0.00964762    -0.07860
C253        C  0.09960924  0.50335590  0.96107088     0.05670
C254        C  0.08317431  0.50234807  0.91917585    -0.02880
Br255      Br  0.09102212  0.49557368  0.85198440    -0.02580
H256        H  0.04576443  0.50210820  0.89486405     0.09580
H257        H  0.10555547  0.00878798  0.04183134     0.07600
Br258      Br  0.05955424  0.01398041  0.08481502    -0.03010
C259        C  0.00234461  0.40688435  0.02786423    -0.09640
C260        C  0.50494314  0.39792291  0.97957837     0.06550
C261        C  0.50955493  0.41598704  0.93788558    -0.03410
C262        C  0.50914694  0.44097563  0.94445527    -0.07860
C263        C  0.50518706  0.44923724  0.99235960     0.05670
C264        C  0.00279831  0.43231275  0.03453211    -0.02880
Br265      Br  0.99979257  0.44269980  0.10193964    -0.02580
H266        H  0.99926582  0.39369354  0.06067510     0.09580
H267        H  0.51066351  0.45342879  0.91141755     0.07600
Br268      Br  0.51767100  0.40848327  0.87142973    -0.03010
C269        C  0.44280082  0.41887009  0.97778438    -0.09640
C270        C  0.44848459  0.43989648  0.01267491     0.06550
C271        C  0.43202793  0.43235664  0.05690085    -0.03410
C272        C  0.40844747  0.40519358  0.06211121    -0.07860
C273        C  0.40314523  0.38379485  0.02733060     0.05670
C274        C  0.42353379  0.39085520  0.98875300    -0.02880
Br275      Br  0.43262151  0.36467862  0.95932890    -0.02580
H276        H  0.45534627  0.42380222  0.94402198     0.09580
H277        H  0.39534018  0.40097733  0.09482002     0.07600
Br278      Br  0.44283627  0.45675814  0.11402504    -0.03010
C279        C  0.98341787  0.07588954  0.05587751    -0.09640
C280        C  0.47378914  0.08677531  0.01710919     0.06550
C281        C  0.47016672  0.07541192  0.96795287    -0.03410
C282        C  0.47572925  0.05355948  0.95913690    -0.07860
C283        C  0.48584080  0.04342055  0.99808736     0.05670
C284        C  0.99018940  0.05519330  0.04646385    -0.02880
Br285      Br  0.00389707  0.04248734  0.10194046    -0.02580
H286        H  0.98621048  0.08391620  0.09397439     0.09580
H287        H  0.47247870  0.04466695  0.92168765     0.07600
Br288      Br  0.46003044  0.09006229  0.91048878    -0.03010
C289        C  0.15496937  0.25659520  0.98078405    -0.09640
C290        C  0.14908563  0.24998637  0.03259525     0.06550
C291        C  0.13806811  0.22137877  0.04775201    -0.03410
C292        C  0.13424509  0.20117621  0.01298761    -0.07860
C293        C  0.14087405  0.20762601  0.96213896     0.05670
C294        C  0.15116834  0.23568213  0.94566293    -0.02880
Br295      Br  0.15979990  0.24612967  0.87598766    -0.02580
H296        H  0.16338322  0.27809149  0.96786869     0.09580
H297        H  0.12667767  0.17993165  0.02654869     0.07600
Br298      Br  0.12779926  0.20638866  0.11525229    -0.03010
C299        C  0.28929672  0.31754849  0.07084410    -0.09640
C300        C  0.30808801  0.31218963  0.09781572     0.06550
C301        C  0.30090830  0.30019476  0.14655588    -0.03410
C302        C  0.27590609  0.29574434  0.16899574    -0.07860
C303        C  0.25776188  0.30243359  0.14247006     0.05670
C304        C  0.26431428  0.31259706  0.09241799    -0.02880
Br305      Br  0.24080602  0.32185459  0.05232026    -0.02580
H306        H  0.29433892  0.32604444  0.03271245     0.09580
H307        H  0.27131644  0.28828484  0.20769070     0.07600
Br308      Br  0.32476254  0.29025804  0.18351391    -0.03010
C309        C  0.04253490  0.30078661  0.09383988    -0.09640
C310        C  0.07027526  0.31295180  0.07567817     0.06550
C311        C  0.07817201  0.33125090  0.03297484    -0.03410
C312        C  0.05964871  0.33917262  0.01365057    -0.07860
C313        C  0.03283145  0.32834732  0.03390894     0.05670
C314        C  0.02372235  0.30816341  0.07289119    -0.02880
Br315      Br  0.98614184  0.29075490  0.09900770    -0.02580
H316        H  0.03565414  0.28604633  0.12526485     0.09580
H317        H  0.06593200  0.35339773  0.98141017     0.07600
Br318      Br  0.11331801  0.34669069  0.99742272    -0.03010
C319        C  0.06814658  0.21526458  0.10308270    -0.09640
C320        C  0.06774358  0.21488107  0.15622319     0.06550
C321        C  0.04223912  0.19619340  0.18081211    -0.03410
C322        C  0.01787233  0.17852114  0.15245435    -0.07860
C323        C  0.01819572  0.17943727  0.09932510     0.05670
C324        C  0.04380822  0.19770993  0.07477271    -0.02880
Br325      Br  0.04634082  0.19958543  0.00241183    -0.02580
H326        H  0.08718096  0.23021554  0.08339425     0.09580
H327        H  0.99867150  0.16379705  0.17193815     0.07600
Br328      Br  0.03998556  0.19397967  0.25317808    -0.03010
C329        C  0.29569567  0.44167361  0.01400201    -0.09640
C330        C  0.28925581  0.43523335  0.96271718     0.06550
C331        C  0.26324467  0.41159564  0.94958036    -0.03410
C332        C  0.24466323  0.39433227  0.98777325    -0.07860
C333        C  0.25171945  0.40000993  0.03956044     0.05670
C334        C  0.27753143  0.42456340  0.05214496    -0.02880
Br335      Br  0.28992273  0.43698387  0.12013124    -0.02580
H336        H  0.31570966  0.45985026  0.02453462     0.09580
H337        H  0.22497220  0.37593996  0.97679539     0.07600
Br338      Br  0.25311141  0.40136005  0.88027412    -0.03010
C339        C  0.16274258  0.41754029  0.02599454    -0.09640
C340        C  0.15720945  0.41730989  0.07786652     0.06550
C341        C  0.14547173  0.43329052  0.09507040    -0.03410
C342        C  0.14081676  0.44994172  0.06086606    -0.07860
C343        C  0.14687452  0.45048899  0.00936113     0.05670
C344        C  0.15714815  0.43345409  0.99167794    -0.02880
Br345      Br  0.16266572  0.43006053  0.92107884    -0.02580
H346        H  0.17121968  0.40501015  0.01176069     0.09580
H347        H  0.13290090  0.46301137  0.07484794     0.07600
Br348      Br  0.13391740  0.43261878  0.16366141    -0.03010
C349        C  0.30393219  0.34483291  0.38840498    -0.09640
C350        C  0.30163139  0.35038190  0.43920177     0.06550
C351        C  0.28229506  0.35867421  0.45264356    -0.03410
C352        C  0.26503810  0.36043199  0.41570845    -0.07860
C353        C  0.26672768  0.35428465  0.36489344     0.05670
C354        C  0.28669583  0.34669330  0.35119598    -0.02880
Br355      Br  0.29064755  0.33714647  0.28349465    -0.02580
H356        H  0.31932453  0.33913021  0.37770016     0.09580
H357        H  0.25005003  0.36657978  0.42691108     0.07600
Br358      Br  0.27968702  0.36947331  0.52023687    -0.03010
C359        C  0.16515001  0.23139928  0.39440811    -0.09640
C360        C  0.17972422  0.24258021  0.34901630     0.06550
C361        C  0.19608758  0.23180375  0.32918308    -0.03410
C362        C  0.19598917  0.20896845  0.35263735    -0.07860
C363        C  0.17985254  0.19652483  0.39587250     0.05670
C364        C  0.16512137  0.20846070  0.41789014    -0.02880
Br365      Br  0.14491358  0.19415955  0.48003845    -0.02580
H366        H  0.15281918  0.23968320  0.41042554     0.09580
H367        H  0.20785588  0.20029866  0.33610521     0.07600
Br368      Br  0.21917254  0.24739357  0.27021886    -0.03010
C369        C  0.02702375  0.33578491  0.31182091    -0.09640
C370        C  0.03313487  0.35019808  0.35743414     0.06550
C371        C  0.06144387  0.37008629  0.36910512    -0.03410
C372        C  0.08338785  0.37362988  0.33742115    -0.07860
C373        C  0.07738759  0.35799767  0.29282204     0.05670
C374        C  0.04867190  0.33983799  0.27933821    -0.02880
Br375      Br  0.03747368  0.31972789  0.21681136    -0.02580
H376        H  0.00527029  0.32156276  0.30110346     0.09580
H377        H  0.10507103  0.38741815  0.34906254     0.07600
Br378      Br  0.07061068  0.39203731  0.42904755    -0.03010
C379        C  0.27407145  0.43568033  0.32668921    -0.09640
C380        C  0.26855083  0.44597833  0.28168169     0.06550
C381        C  0.28647842  0.47440423  0.26839806    -0.03410
C382        C  0.30908495  0.49207364  0.30075094    -0.07860
C383        C  0.31440264  0.48154630  0.34588304     0.05670
C384        C  0.29642227  0.45310314  0.35872502    -0.02880
Br385      Br  0.30067184  0.43738818  0.42106984    -0.02580
H386        H  0.26066440  0.41376782  0.33726471     0.09580
H387        H  0.32251114  0.01405553  0.29075690     0.07600
Br388      Br  0.28110983  0.48947132  0.20645726    -0.03010
C389        C  0.18544440  0.45375484  0.42314809    -0.09640
C390        C  0.16243033  0.44394793  0.45556657     0.06550
C391        C  0.14688100  0.41478392  0.46660994    -0.03410
C392        C  0.15218740  0.39580915  0.43984704    -0.07860
C393        C  0.17398637  0.40575944  0.40390428     0.05670
C394        C  0.19154158  0.43528589  0.39845765    -0.02880
Br395      Br  0.22371007  0.45224792  0.35543768    -0.02580
H396        H  0.19845655  0.47613695  0.41570925     0.09580
H397        H  0.13856173  0.37337428  0.44557747     0.07600
Br398      Br  0.11999591  0.40057170  0.52033168    -0.03010
C399        C  0.04710717  0.21963624  0.42331998    -0.09640
C400        C  0.06273860  0.21569478  0.46146066     0.06550
C401        C  0.09109297  0.23578295  0.46883631    -0.03410
C402        C  0.10415011  0.25844934  0.43555671    -0.07860
C403        C  0.08919434  0.26176331  0.39472741     0.05670
C404        C  0.05995673  0.24263621  0.39026289    -0.02880
Br405      Br  0.03609889  0.24693688  0.34179339    -0.02580
H406        H  0.02474870  0.20469691  0.41937632     0.09580
H407        H  0.12647229  0.27295530  0.44104606     0.07600
Br408      Br  0.11247212  0.23342029  0.52452051    -0.03010
C409        C  0.42728067  0.44998054  0.45099017    -0.09640
C410        C  0.44975728  0.45837723  0.48465731     0.06550
C411        C  0.44451777  0.44378196  0.53118338    -0.03410
C412        C  0.41909628  0.41828647  0.53866390    -0.07860
C413        C  0.39666777  0.40926896  0.50367774     0.05670
C414        C  0.40036558  0.42858047  0.46386956    -0.02880
Br415      Br  0.37069225  0.43361348  0.43547174    -0.02580
H416        H  0.42999874  0.46142688  0.41619219     0.09580
H417        H  0.41671224  0.40668287  0.57322066     0.07600
Br418      Br  0.46911043  0.46012130  0.58806357    -0.03010
C419        C  0.02785733  0.10879621  0.44972509    -0.09640
C420        C  0.02894171  0.11529167  0.50116022     0.06550
C421        C  0.02476984  0.09475883  0.53784846    -0.03410
C422        C  0.01798991  0.06791435  0.52254770    -0.07860
C423        C  0.01648683  0.06135931  0.47111795     0.05670
C424        C  0.02214989  0.08227938  0.43453600    -0.02880
Br425      Br  0.52225013  0.07629670  0.36363778    -0.02580
H426        H  0.53077045  0.12420808  0.42099074     0.09580
H427        H  0.01457451  0.05217222  0.55097497     0.07600
Br428      Br  0.02957245  0.10252779  0.60903838    -0.03010
C429        C  0.10592193  0.08123617  0.40165076    -0.09640
C430        C  0.11990216  0.09635725  0.44517217     0.06550
C431        C  0.10509797  0.08966504  0.49111781    -0.03410
C432        C  0.07714809  0.06751099  0.49333307    -0.07860
C433        C  0.06314960  0.05227015  0.44986471     0.05670
C434        C  0.07776728  0.05945389  0.40360662    -0.02880
Br435      Br  0.06002181  0.04116530  0.34159647    -0.02580
H436        H  0.11680451  0.08684615  0.36574957     0.09580
H437        H  0.06623311  0.06219687  0.52915489     0.07600
Br438      Br  0.12133298  0.11129142  0.55098516    -0.03010
C439        C  0.44213152  0.01366731  0.49595692    -0.09640
C440        C  0.45824400  0.01427190  0.45478804     0.06550
C441        C  0.44853521  0.01503541  0.40543476    -0.03410
C442        C  0.42384130  0.01617520  0.39802793    -0.07860
C443        C  0.40747088  0.01547258  0.43904340     0.05670
C444        C  0.41676837  0.01367988  0.48861801    -0.02880
Br445      Br  0.39441230  0.00772160  0.54776281    -0.02580
H446        H  0.44860067  0.01171852  0.53391243     0.09580
H447        H  0.41700711  0.01684951  0.35973828     0.07600
Br448      Br  0.46546541  0.00954635  0.34690488    -0.03010
C449        C  0.06941339  0.00395531  0.50394447    -0.09640
C450        C  0.05353742  0.99582796  0.45921958     0.06550
C451        C  0.06114292  0.48329556  0.42078888    -0.03410
C452        C  0.08473964  0.47997097  0.42749724    -0.07860
C453        C  0.10054614  0.98818654  0.47263817     0.05670
C454        C  0.09165419  0.99912032  0.51191554    -0.02880
Br455      Br  0.10719829  0.00580039  0.57936683    -0.02580
H456        H  0.06331384  0.01271134  0.53439368     0.09580
H457        H  0.09108227  0.47150774  0.39696784     0.07600
Br458      Br  0.04097425  0.47110411  0.35802084    -0.03010
C459        C  0.47976506  0.43443595  0.41539585    -0.09640
C460        C  0.49473925  0.44841637  0.45931926     0.06550
C461        C  0.50400742  0.43476093  0.49323869    -0.03410
C462        C  0.49994438  0.40858756  0.48074444    -0.07860
C463        C  0.48650455  0.39558099  0.43554829     0.05670
C464        C  0.47573948  0.40816854  0.40317546    -0.02880
Br465      Br  0.45600168  0.39047560  0.34202258    -0.02580
H466        H  0.47222730  0.44458628  0.38945032     0.09580
H467        H  0.50778174  0.39843129  0.50605061     0.07600
Br468      Br  0.52180940  0.44947518  0.55719035    -0.03010
C469        C  0.23338452  0.16992392  0.87386570    -0.09640
C470        C  0.23275869  0.16292668  0.82260149     0.06550
C471        C  0.20759128  0.15489346  0.79444158    -0.03410
C472        C  0.18454507  0.15442031  0.81738622    -0.07860
C473        C  0.18555008  0.16193255  0.86797880     0.05670
C474        C  0.21018408  0.16954598  0.89646531    -0.02880
Br475      Br  0.21266615  0.17844260  0.96692524    -0.02580
H476        H  0.25208998  0.17597807  0.89653907     0.09580
H477        H  0.16555940  0.14816392  0.79538331     0.07600
Br478      Br  0.20187501  0.14319075  0.72490046    -0.03010
C479        C  0.35054098  0.27762274  0.86585171    -0.09640
C480        C  0.35264175  0.25447316  0.88237200     0.06550
C481        C  0.35175089  0.24866119  0.93486940    -0.03410
C482        C  0.34941460  0.26625893  0.96923221    -0.07860
C483        C  0.34723916  0.28930467  0.95270057     0.05670
C484        C  0.34733526  0.29470940  0.90039534    -0.02880
Br485      Br  0.34089908  0.32355737  0.87368071    -0.02580
H486        H  0.34998568  0.28165987  0.82577153     0.09580
H487        H  0.34978846  0.26217859  0.00935037     0.07600
Br488      Br  0.35380978  0.21735398  0.96310684    -0.03010
C489        C  0.46618779  0.16730525  0.54525216    -0.09640
C490        C  0.48544983  0.16507563  0.57694342     0.06550
C491        C  0.48192839  0.16325077  0.62932871    -0.03410
C492        C  0.45911702  0.16395923  0.64962279    -0.07860
C493        C  0.43968186  0.16665201  0.61818744     0.05670
C494        C  0.44343546  0.16822877  0.56501697    -0.02880
Br495      Br  0.41968177  0.17243582  0.51583087    -0.02580
H496        H  0.46923783  0.16882035  0.50464647     0.09580
H497        H  0.45686387  0.16261290  0.69034151     0.07600
Br498      Br  0.00835840  0.16106386  0.67434296    -0.03010
C499        C  0.41963544  0.25352037  0.51390954    -0.09640
C500        C  0.41858057  0.26170081  0.56402458     0.06550
C501        C  0.43800939  0.28981742  0.57789072    -0.03410
C502        C  0.45724014  0.30851789  0.54229723    -0.07860
C503        C  0.45732015  0.30050163  0.49197521     0.05670
C504        C  0.43844585  0.27255085  0.47814844    -0.02880
Br505      Br  0.43569542  0.25983587  0.40999384    -0.02580
H506        H  0.40519353  0.23224307  0.50158756     0.09580
H507        H  0.47153928  0.33009064  0.55343459     0.07600
Br508      Br  0.43941094  0.30511862  0.64346706    -0.03010
C509        C  0.43046419  0.25478304  0.87275918    -0.09640
C510        C  0.44149266  0.25910288  0.82370182     0.06550
C511        C  0.46455126  0.28563378  0.81065868    -0.03410
C512        C  0.47650613  0.30709181  0.84668370    -0.07860
C513        C  0.46572132  0.30248761  0.89589499     0.05670
C514        C  0.44267582  0.27597370  0.90894994    -0.02880
Br515      Br  0.42734391  0.26794239  0.97597314    -0.02580
H516        H  0.41181080  0.23499712  0.88264668     0.09580
H517        H  0.49482076  0.32711480  0.83677353     0.07600
Br518      Br  0.48070528  0.29313338  0.74449252    -0.03010
C519        C  0.38251994  0.13735842  0.96282841    -0.09640
C520        C  0.39527370  0.15950889  0.92705689     0.06550
C521        C  0.42526409  0.17623154  0.92858899    -0.03410
C522        C  0.44127964  0.17053493  0.96283209    -0.07860
C523        C  0.42893795  0.14751812  0.99576833     0.05670
C524        C  0.39906329  0.13110576  0.99645405    -0.02880
Br525      Br  0.38011513  0.09990081  0.04219224    -0.02580
H526        H  0.35984232  0.12372006  0.96244444     0.09580
H527        H  0.46407379  0.18326056  0.96117581     0.07600
Br528      Br  0.44731596  0.20574055  0.88154548    -0.03010
C529        C  0.33295241  0.29223459  0.66847200    -0.09640
C530        C  0.31666881  0.26497512  0.64811351     0.06550
C531        C  0.30407507  0.26243365  0.60032576    -0.03410
C532        C  0.31040566  0.28646163  0.57204582    -0.07860
C533        C  0.32793562  0.31388116  0.59080610     0.05670
C534        C  0.33805951  0.31644334  0.64102196    -0.02880
Br535      Br  0.35762660  0.35179484  0.67546136    -0.02580
H536        H  0.34235870  0.29478367  0.70568442     0.09580
H537        H  0.30213772  0.28338388  0.53385114     0.07600
Br538      Br  0.27971334  0.22716213  0.56859487    -0.03010
C539        C  0.25126819  0.15755883  0.55804087    -0.09640
C540        C  0.27533555  0.16201068  0.53185056     0.06550
C541        C  0.27350536  0.15866736  0.47891479    -0.03410
C542        C  0.24816660  0.15202402  0.45354759    -0.07860
C543        C  0.22439618  0.14794489  0.48053234     0.05670
C544        C  0.22619088  0.15046921  0.53329249    -0.02880
Br545      Br  0.19601226  0.14734342  0.57365929    -0.02580
H546        H  0.25204919  0.16040434  0.59855465     0.09580
H547        H  0.24723754  0.15081732  0.41267218     0.07600
Br548      Br  0.30539193  0.16549838  0.43953655    -0.03010
C549        C  0.36319982  0.05270226  0.77488181    -0.09640
C550        C  0.35357441  0.06875704  0.79878583     0.06550
C551        C  0.33864670  0.05873819  0.84451645    -0.03410
C552        C  0.33347384  0.03320516  0.86550229    -0.07860
C553        C  0.34262361  0.01675248  0.84154657     0.05670
C554        C  0.35780166  0.02684784  0.79566367    -0.02880
Br555      Br  0.36996440  0.00547340  0.75772528    -0.02580
H556        H  0.37395553  0.05972320  0.73900370     0.09580
H557        H  0.32251391  0.02637589  0.90125369     0.07600
Br558      Br  0.32416217  0.07884111  0.87968550    -0.03010
C559        C  0.24885743  0.06512835  0.90251008    -0.09640
C560        C  0.24686617  0.07531644  0.85497037     0.06550
C561        C  0.22037362  0.06838702  0.83507580    -0.03410
C562        C  0.19607965  0.04855880  0.85969043    -0.07860
C563        C  0.19779353  0.03706043  0.90626060     0.05670
C564        C  0.22453243  0.04654875  0.92892284    -0.02880
Br565      Br  0.22942604  0.03737400  0.99726161    -0.02580
H566        H  0.26931421  0.07216129  0.91960930     0.09580
H567        H  0.17579241  0.04248376  0.84269451     0.07600
Br568      Br  0.21639892  0.08822683  0.77844033    -0.03010
C569        C  0.22457808  0.08318872  0.56959945    -0.09640
C570        C  0.22505209  0.07601652  0.62062705     0.06550
C571        C  0.20949988  0.04728845  0.63499173    -0.03410
C572        C  0.19412394  0.02677074  0.59890484    -0.07860
C573        C  0.19414707  0.03404787  0.54808258     0.05670
C574        C  0.20928553  0.06254653  0.53342498    -0.02880
Br575      Br  0.21126718  0.07393566  0.46401047    -0.02580
H576        H  0.23780427  0.10460562  0.55699586     0.09580
H577        H  0.18187219  0.00491037  0.61065084     0.07600
Br578      Br  0.20898564  0.03416308  0.70266612    -0.03010
C579        C  0.34152244  0.04358706  0.53897775    -0.09640
C580        C  0.34206791  0.04954772  0.48708745     0.06550
C581        C  0.33568674  0.07016347  0.47104534    -0.03410
C582        C  0.32976603  0.08490469  0.50687941    -0.07860
C583        C  0.33002710  0.07956540  0.55905095     0.05670
C584        C  0.33560071  0.05829823  0.57485445    -0.02880
Br585      Br  0.33814567  0.05002637  0.64468418    -0.02580
H586        H  0.34625127  0.02766809  0.55176364     0.09580
H587        H  0.32585698  0.10135625  0.49391950     0.07600
Br588      Br  0.33713898  0.08074548  0.40121178    -0.03010
O589        O  0.34181458  0.62529521  0.58133795    -0.86970
O590        O  0.28790027  0.61909924  0.85024513    -0.87140
O591        O  0.32896724  0.58483803  0.75089950    -0.88810
O592        O  0.26286419  0.58847956  0.67514962    -0.87570
O593        O  0.25275434  0.62297405  0.65341322    -0.87160
O594        O  0.37446904  0.61739919  0.77369164    -0.88530
O595        O  0.27574389  0.58856186  0.78361118    -0.87000
O596        O  0.31611916  0.58980843  0.63814323    -0.86590
Zr597      Zr  0.30874899  0.61075419  0.71412359     2.84310
O598        O  0.29342888  0.63932187  0.74889149    -1.08570
O599        O  0.35459179  0.63922063  0.68494488    -1.09300
C600        C  0.32885719  0.59927767  0.59527640     1.06130
C601        C  0.27222993  0.59540403  0.82832424     1.06080
C602        C  0.35291980  0.59190685  0.77144997     1.09060
C603        C  0.24757929  0.59713041  0.65343193     1.06840
H604        H  0.33668779  0.62407512  0.80922505     0.32400
O605        O  0.33748070  0.63635640  0.78230940    -1.29520
H606        H  0.29748126  0.62969012  0.62307260     0.32070
O607        O  0.30844432  0.64063882  0.65155306    -1.31200
O608        O  0.33764606  0.70860613  0.85762272    -0.86970
O609        O  0.38498202  0.71447909  0.58386544    -0.88470
O610        O  0.39185975  0.66132355  0.83967114    -0.87050
O611        O  0.25999622  0.66675005  0.75075268    -0.87090
O612        O  0.30368985  0.68676925  0.60087040    -0.86810
O613        O  0.41603278  0.66784478  0.69093883    -0.86610
O614        O  0.41300897  0.74792534  0.75285495    -0.86980
O615        O  0.34315102  0.74807772  0.68939970    -0.86450
O616        O  0.41700414  0.71236330  0.78979624    -0.87510
O617        O  0.29728840  0.71560596  0.66952663    -0.86670
O618        O  0.35582734  0.66130075  0.88253127    -0.87070
O619        O  0.39714888  0.66757094  0.61336171    -0.86790
O620        O  0.31969273  0.66429370  0.55526555    -0.86440
O621        O  0.27706932  0.66377244  0.82874639    -0.86850
O622        O  0.36269990  0.74417109  0.80046070    -0.87140
O623        O  0.39427290  0.74728304  0.64448442    -0.88480
Zr624      Zr  0.32227365  0.66453277  0.81764802     2.83100
Zr625      Zr  0.35414529  0.66912515  0.62149067     2.83500
Zr626      Zr  0.38323292  0.66551694  0.75271120     2.84090
Zr627      Zr  0.29174697  0.66865198  0.68595694     2.83360
Zr628      Zr  0.36619790  0.72340224  0.72090194     2.84220
O629        O  0.33734801  0.69701038  0.65470975    -1.09050
O630        O  0.36694397  0.69377790  0.78479409    -1.08550
C631        C  0.35148941  0.73462284  0.84445802     1.06110
C632        C  0.39785468  0.73997608  0.59996292     1.08720
C633        C  0.37949940  0.66079632  0.88074330     1.06280
C634        C  0.25829256  0.66452302  0.79934995     1.06640
C635        C  0.30137762  0.67186199  0.56281331     1.06220
C636        C  0.41609501  0.66749025  0.64224463     1.05770
C637        C  0.42384185  0.73858611  0.78496636     1.06200
C638        C  0.31864083  0.74120507  0.67145365     1.05710
H639        H  0.40285714  0.70779501  0.67755594     0.32390
O640        O  0.38370690  0.69577486  0.68879811    -1.30150
H641        H  0.31398360  0.70587227  0.76712739     0.32410
O642        O  0.32095350  0.69435601  0.75369226    -1.31530
C643        C  0.47832656  0.98250708  0.47114141     0.01800
C644        C  0.50114511  0.97765652  0.46578870     0.01800
C645        C  0.02882411  0.50028924  0.45633175     0.01800
C646        C  0.03367459  0.52808391  0.45416012     0.01800
C647        C  0.01074597  0.53285746  0.45841815     0.01800
C648        C  0.48280045  0.50991047  0.46279090     0.01800
C649        C  0.00990567  0.66652464  0.55362287     0.02640
C650        C  0.01099878  0.64206817  0.54674984    -0.13510
C651        C  0.03132780  0.64231202  0.51492969     0.00140
C652        C  0.05017205  0.66739840  0.48939682    -0.12030
C653        C  0.04821469  0.69156568  0.49552947     0.02640
C654        C  0.02876287  0.69129014  0.52877284    -0.11450
H655        H  0.99460236  0.62244929  0.56292989     0.08230
H656        H  0.06498671  0.66765690  0.46244084     0.05760
H657        H  0.02667747  0.70976314  0.53199034     0.05610
C658        C  0.15612301  0.96527713  0.47648905     0.02640
C659        C  0.17753595  0.48846991  0.50280943    -0.13510
C660        C  0.17480134  0.51184039  0.51326888     0.00140
C661        C  0.15082227  0.51217517  0.49744468    -0.12030
C662        C  0.12760302  0.48813533  0.47753427     0.02640
C663        C  0.13074200  0.96498974  0.46481444    -0.11450
H664        H  0.19655671  0.48856945  0.51429900     0.08230
H665        H  0.14933016  0.53067925  0.50487638     0.05760
H666        H  0.11389220  0.94726028  0.44546444     0.05610
C667        C  0.34970608  0.53413049  0.45104727     0.02640
C668        C  0.37501939  0.53403304  0.45768209    -0.13510
C669        C  0.38093872  0.51634433  0.42902355     0.00140
C670        C  0.36151346  0.49986511  0.39065672    -0.12030
C671        C  0.33653696  0.50074735  0.38217757     0.02640
C672        C  0.33075284  0.51765846  0.41300429    -0.11450
H673        H  0.38999445  0.54762552  0.48593804     0.08230
H674        H  0.36536292  0.98582227  0.36834513     0.05760
H675        H  0.31083809  0.51706010  0.40873889     0.05610
C676        C  0.00969018  0.84713498  0.38916784     0.02640
C677        C  0.49380790  0.82352175  0.42114865    -0.13510
C678        C  0.47329851  0.82300141  0.45379200     0.00140
C679        C  0.46897677  0.84588186  0.45345871    -0.12030
C680        C  0.48519158  0.86931390  0.42321979     0.02640
C681        C  0.00488119  0.86969985  0.39016830    -0.11450
H682        H  0.49814152  0.80642800  0.42203325     0.08230
H683        H  0.45405964  0.84631849  0.47936952     0.05760
H684        H  0.01797460  0.88849108  0.36788368     0.05610
C685        C  0.19947085  0.64562219  0.45399930     0.02640
C686        C  0.17265670  0.62112779  0.45811117    -0.13510
C687        C  0.14849871  0.62122715  0.44023746     0.00140
C688        C  0.15125848  0.64579149  0.41871586    -0.12030
C689        C  0.17765798  0.67039738  0.41586705     0.02640
C690        C  0.20176864  0.67003240  0.43225903    -0.11450
H691        H  0.17052385  0.60246744  0.47648168     0.08230
H692        H  0.13264878  0.64595144  0.40524065     0.05760
H693        H  0.22214185  0.68923716  0.43083721     0.05610
C694        C  0.33515459  0.83825497  0.55546460     0.02640
C695        C  0.36269101  0.86235275  0.55111475    -0.13510
C696        C  0.36970583  0.88110815  0.50899072     0.00140
C697        C  0.35047324  0.87188217  0.46876946    -0.12030
C698        C  0.32242456  0.85183968  0.47621792     0.02640
C699        C  0.31456785  0.83540466  0.52006170    -0.11450
H700        H  0.37863830  0.86545334  0.57845375     0.08230
H701        H  0.35664261  0.88130888  0.43173941     0.05760
H702        H  0.29267087  0.81922129  0.52479915     0.05610
O703        O  0.13180013  0.79948282  0.36642732    -0.86970
O704        O  0.11543845  0.81859864  0.08589746    -0.87140
O705        O  0.09172728  0.82894571  0.25861122    -0.88810
O706        O  0.08441040  0.75552549  0.20382200    -0.87570
O707        O  0.11687499  0.74362379  0.18011088    -0.87160
O708        O  0.12524278  0.87581198  0.26192447    -0.88530
O709        O  0.08587756  0.80381614  0.15387321    -0.87000
O710        O  0.09491439  0.78075462  0.31056751    -0.86590
Zr711      Zr  0.11273616  0.80356901  0.22790510     2.84310
O712        O  0.13618495  0.79537243  0.16346056    -1.08570
O713        O  0.14409031  0.83973136  0.28049691    -1.09300
C714        C  0.10587844  0.78256599  0.35492964     1.06130
C715        C  0.09156738  0.81069409  0.10671599     1.06080
C716        C  0.09974900  0.85460149  0.26859757     1.09060
C717        C  0.09123105  0.73893624  0.18324031     1.06840
H718        H  0.12713380  0.85107208  0.16717163     0.32400
O719        O  0.13947140  0.84495770  0.18093803    -1.29520
H720        H  0.13155880  0.77151273  0.28225850     0.32070
O721        O  0.14220671  0.78916397  0.26434591    -1.31200
O722        O  0.20550911  0.86541937  0.06695048    -0.86970
O723        O  0.22042034  0.84301888  0.34977151    -0.88470
O724        O  0.16692698  0.90486890  0.15890730    -0.87050
O725        O  0.16229563  0.76579515  0.11504613    -0.87090
O726        O  0.17080534  0.75791937  0.27214965    -0.86810
O727        O  0.17319109  0.89662819  0.31851741    -0.86610
O728        O  0.25231635  0.90754574  0.22914496    -0.86980
O729        O  0.24598121  0.83246606  0.18037433    -0.86450
O730        O  0.22056332  0.92113509  0.25033198    -0.87510
O731        O  0.21142216  0.78585618  0.17470225    -0.86670
O732        O  0.16001323  0.87669759  0.09061418    -0.87070
O733        O  0.17399925  0.86387126  0.37196123    -0.86790
O734        O  0.17669439  0.78428902  0.34298051    -0.86440
O735        O  0.15565547  0.79515268  0.06238752    -0.86850
O736        O  0.24199560  0.88081120  0.12362723    -0.87140
O737        O  0.25073359  0.85860952  0.28251681    -0.88480
Zr738      Zr  0.16291825  0.83596621  0.11585187     2.83100
Zr739      Zr  0.17359195  0.82595870  0.31794064     2.83500
Zr740      Zr  0.17122615  0.88122928  0.23392520     2.84090
Zr741      Zr  0.16630967  0.78204270  0.19933249     2.83360
Zr742      Zr  0.22456991  0.85883658  0.20688466     2.84220
O743        O  0.19759129  0.81774867  0.25352859    -1.09050
O744        O  0.19483824  0.87263067  0.16935495    -1.08550
C745        C  0.23182297  0.88075598  0.07921067     1.06110
C746        C  0.24476911  0.85215892  0.32976014     1.08720
C747        C  0.16186008  0.89856891  0.11157187     1.06280
C748        C  0.15625531  0.77212254  0.07183674     1.06640
C749        C  0.17551717  0.76310103  0.31975883     1.06220
C750        C  0.17381617  0.88719328  0.36282265     1.05770
C751        C  0.24590078  0.92470533  0.24887209     1.06200
C752        C  0.23704972  0.80663683  0.16931328     1.05710
H753        H  0.21327128  0.87991013  0.29590593     0.32390
O754        O  0.20053348  0.86670471  0.27132495    -1.30150
H755        H  0.20296456  0.82058702  0.12519278     0.32410
O756        O  0.19325415  0.82332234  0.15255680    -1.31530
C757        C  0.44859648  0.64054174  0.02409601     0.02640
C758        C  0.47109223  0.66149491  0.05343369    -0.13510
C759        C  0.49342202  0.65779483  0.07036170     0.00140
C760        C  0.49354054  0.63350563  0.05712655    -0.12030
C761        C  0.47154488  0.61208353  0.02892608     0.02640
C762        C  0.44874368  0.61550407  0.01329067    -0.11450
H763        H  0.47179802  0.68108854  0.06121273     0.08230
H764        H  0.01152976  0.63160920  0.06836570     0.05760
H765        H  0.43174037  0.59932690  0.99107018     0.05610
C766        C  0.49036632  0.51937647  0.99000028     0.01800
C767        C  0.46765792  0.99157875  0.99676224     0.01800
C768        C  0.47279341  0.96900325  0.00349243     0.01800
C769        C  0.00038094  0.97373629  0.99578054     0.01800
C770        C  0.02250316  0.00134840  0.98406376     0.01800
C771        C  0.01768270  0.52417815  0.98110521     0.01800
C772        C  0.14551373  0.97153942  0.97675408     0.02640
C773        C  0.12213273  0.97511160  0.97830552    -0.13510
C774        C  0.12334864  0.99875380  0.95569203     0.00140
C775        C  0.14804618  0.51908969  0.93219639    -0.12030
C776        C  0.17148712  0.51553543  0.93021567     0.02640
C777        C  0.16970561  0.99127559  0.95108706    -0.11450
H778        H  0.10337104  0.96005388  0.99861551     0.08230
H779        H  0.14920140  0.53798404  0.91691432     0.05760
H780        H  0.18777331  0.98846498  0.94963016     0.05610
C781        C  0.01362307  0.83489632  0.00679499     0.02640
C782        C  0.49605995  0.81578803  0.97077211    -0.13510
C783        C  0.48197344  0.82319280  0.93551766     0.00140
C784        C  0.48514874  0.85018317  0.93703144    -0.12030
C785        C  0.50244990  0.86972355  0.97444459     0.02640
C786        C  0.01692016  0.86177846  0.00881991    -0.11450
H787        H  0.49465985  0.79547261  0.96823577     0.08230
H788        H  0.47392037  0.85561357  0.90962125     0.05760
H789        H  0.03142601  0.87674753  0.03616007     0.05610
C790        C  0.13767636  0.68406764  0.93005076     0.02640
C791        C  0.16133491  0.68540582  0.90731664    -0.13510
C792        C  0.16026431  0.66075066  0.89022164     0.00140
C793        C  0.13528428  0.63457416  0.89622997    -0.12030
C794        C  0.11165767  0.63284122  0.91954462     0.02640
C795        C  0.11267538  0.65768233  0.93430105    -0.11450
H796        H  0.18104127  0.70527919  0.90560417     0.08370
H797        H  0.13476790  0.61544393  0.88522782     0.05760
H798        H  0.09468355  0.65615863  0.95366956     0.05610
C799        C  0.33897018  0.99118787  0.86844653     0.02640
C800        C  0.31342268  0.97189613  0.89305874    -0.13510
C801        C  0.31237500  0.95097287  0.92590395     0.00140
C802        C  0.33658088  0.94907759  0.93276684    -0.12030
C803        C  0.36200044  0.96878973  0.91075623     0.02640
C804        C  0.36309680  0.98941840  0.87825118    -0.11450
H805        H  0.29513000  0.97429732  0.88933358     0.08230
H806        H  0.33645026  0.93416290  0.96011171     0.05760
H807        H  0.38344631  0.50585598  0.86471081     0.05610
C808        C  0.34838073  0.80889194  0.99127129     0.02640
C809        C  0.33060500  0.79926478  0.03297139    -0.13510
C810        C  0.33377645  0.81802761  0.07097938     0.00140
C811        C  0.35783047  0.84532294  0.07145065    -0.12030
C812        C  0.37694921  0.85493339  0.03036003     0.02640
C813        C  0.36936598  0.83706057  0.98852831    -0.11450
H814        H  0.31273764  0.77795178  0.03340375     0.08230
H815        H  0.36002970  0.85908589  0.10201432     0.05760
H816        H  0.37980499  0.84472360  0.95300778     0.05610
C817        C  0.43273865  0.97446280  0.92784274    -0.09640
C818        C  0.43959762  0.98490059  0.97744843     0.06550
C819        C  0.42034417  0.98934409  0.00476305    -0.03410
C820        C  0.39483268  0.98301589  0.98234455    -0.07860
C821        C  0.38823855  0.97280932  0.93290082     0.05670
C822        C  0.40731137  0.96855424  0.90535073    -0.02880
Br823      Br  0.39940515  0.95470505  0.83746146    -0.02580
H824        H  0.44750373  0.97125627  0.90629521     0.09580
H825        H  0.38020482  0.98675080  0.00319302     0.07600
Br826      Br  0.42689876  0.00453063  0.07142864    -0.03010
C827        C  0.06039691  0.57066654  0.00095927    -0.09640
C828        C  0.04088667  0.55261405  0.96506949     0.06550
C829        C  0.04475318  0.56100417  0.91374398    -0.03410
C830        C  0.06792405  0.58703791  0.89915986    -0.07860
C831        C  0.08741539  0.60513406  0.93522374     0.05670
C832        C  0.08345550  0.59664581  0.98652490    -0.02880
Br833      Br  0.10973382  0.61916834  0.03819948    -0.02580
H834        H  0.05794039  0.56435914  0.04032676     0.09580
H835        H  0.07068819  0.59320985  0.85964785     0.07600
Br836      Br  0.01912442  0.53726308  0.86232779    -0.03010
C837        C  0.05914000  0.00416861  0.92681134    -0.09640
C838        C  0.05099918  0.00614371  0.97587268     0.06550
C839        C  0.06841915  0.50897326  0.01727383    -0.03410
C840        C  0.09259073  0.50749809  0.00964761    -0.07860
C841        C  0.09960924  0.00335590  0.96107088     0.05670
C842        C  0.08317431  0.00234808  0.91917585    -0.02880
Br843      Br  0.09102212  0.99557368  0.85198440    -0.02580
H844        H  0.04576443  0.00210820  0.89486406     0.09580
H845        H  0.10555547  0.50878799  0.04183134     0.07600
Br846      Br  0.05955423  0.51398041  0.08481501    -0.03010
C847        C  0.00234461  0.90688435  0.02786424    -0.09640
C848        C  0.50494317  0.89792293  0.97957838     0.06550
C849        C  0.50955495  0.91598706  0.93788559    -0.03410
C850        C  0.50914696  0.94097565  0.94445528    -0.07860
C851        C  0.50518708  0.94923725  0.99235961     0.05670
C852        C  0.00279830  0.93231275  0.03453212    -0.02880
Br853      Br  0.99979256  0.94269980  0.10193966    -0.02580
H854        H  0.99926581  0.89369354  0.06067512     0.09580
H855        H  0.51066352  0.95342881  0.91141756     0.07600
Br856      Br  0.51767102  0.90848329  0.87142973    -0.03010
C857        C  0.44280084  0.91887008  0.97778445    -0.09640
C858        C  0.44848460  0.93989647  0.01267495     0.06550
C859        C  0.43202793  0.93235665  0.05690089    -0.03410
C860        C  0.40844747  0.90519359  0.06211126    -0.07860
C861        C  0.40314525  0.88379486  0.02733067     0.05670
C862        C  0.42353381  0.89085519  0.98875310    -0.02880
Br863      Br  0.43262154  0.86467860  0.95932909    -0.02580
H864        H  0.45534629  0.92380220  0.94402206     0.09580
H865        H  0.39534017  0.90097735  0.09482005     0.07600
Br866      Br  0.44283627  0.95675816  0.11402506    -0.03010
C867        C  0.98341787  0.57588953  0.05587751    -0.09640
C868        C  0.47378914  0.58677531  0.01710918     0.06550
C869        C  0.47016672  0.57541192  0.96795286    -0.03410
C870        C  0.47572926  0.55355948  0.95913688    -0.07860
C871        C  0.48584080  0.54342056  0.99808734     0.05670
C872        C  0.99018940  0.55519329  0.04646384    -0.02880
Br873      Br  0.00389706  0.54248732  0.10194046    -0.02580
H874        H  0.98621048  0.58391619  0.09397439     0.09580
H875        H  0.47247870  0.54466696  0.92168763     0.07600
Br876      Br  0.46003044  0.59006229  0.91048877    -0.03010
C877        C  0.15496936  0.75659520  0.98078404    -0.09640
C878        C  0.14908562  0.74998636  0.03259524     0.06550
C879        C  0.13806810  0.72137876  0.04775200    -0.03410
C880        C  0.13424508  0.70117621  0.01298760    -0.07860
C881        C  0.14087404  0.70762601  0.96213895     0.05670
C882        C  0.15116833  0.73568213  0.94566292    -0.02880
Br883      Br  0.15979989  0.74612967  0.87598765    -0.02580
H884        H  0.16338321  0.77809148  0.96786868     0.09580
H885        H  0.12667766  0.67993165  0.02654868     0.07600
Br886      Br  0.12779926  0.70638865  0.11525228    -0.03010
C887        C  0.28929670  0.81754846  0.07084410    -0.09640
C888        C  0.30808800  0.81218963  0.09781573     0.06550
C889        C  0.30090830  0.80019477  0.14655590    -0.03410
C890        C  0.27590608  0.79574435  0.16899576    -0.07860
C891        C  0.25776187  0.80243358  0.14247007     0.05670
C892        C  0.26431426  0.81259703  0.09241799    -0.02880
Br893      Br  0.24080599  0.82185454  0.05232024    -0.02580
H894        H  0.29433889  0.82604441  0.03271244     0.09580
H895        H  0.27131645  0.78828485  0.20769073     0.07600
Br896      Br  0.32476256  0.79025808  0.18351395    -0.03010
C897        C  0.04253490  0.80078661  0.09383988    -0.09640
C898        C  0.07027525  0.81295180  0.07567817     0.06550
C899        C  0.07817201  0.83125090  0.03297484    -0.03410
C900        C  0.05964871  0.83917262  0.01365058    -0.07860
C901        C  0.03283145  0.82834732  0.03390895     0.05670
C902        C  0.02372234  0.80816341  0.07289119    -0.02880
Br903      Br  0.98614184  0.79075490  0.09900770    -0.02580
H904        H  0.03565413  0.78604633  0.12526485     0.09580
H905        H  0.06593199  0.85339773  0.98141018     0.07600
Br906      Br  0.11331800  0.84669069  0.99742272    -0.03010
C907        C  0.06814657  0.71526456  0.10308271    -0.09640
C908        C  0.06774357  0.71488107  0.15622319     0.06550
C909        C  0.04223911  0.69619340  0.18081211    -0.03410
C910        C  0.01787232  0.67852114  0.15245435    -0.07860
C911        C  0.01819572  0.67943726  0.09932510     0.05670
C912        C  0.04380821  0.69770992  0.07477271    -0.02880
Br913      Br  0.04634082  0.69958540  0.00241183    -0.02580
H914        H  0.08718095  0.73021552  0.08339426     0.09580
H915        H  0.99867148  0.66379705  0.17193815     0.07600
Br916      Br  0.03998554  0.69397968  0.25317808    -0.03010
C917        C  0.29569567  0.94167360  0.01400200    -0.09640
C918        C  0.28925581  0.93523334  0.96271717     0.06550
C919        C  0.26324467  0.91159563  0.94958035    -0.03410
C920        C  0.24466322  0.89433227  0.98777324    -0.07860
C921        C  0.25171944  0.90000992  0.03956043     0.05670
C922        C  0.27753143  0.92456338  0.05214495    -0.02880
Br923      Br  0.28992274  0.93698385  0.12013124    -0.02580
H924        H  0.31570967  0.95985025  0.02453461     0.09580
H925        H  0.22497219  0.87593995  0.97679538     0.07600
Br926      Br  0.25311140  0.90136005  0.88027411    -0.03010
C927        C  0.16274258  0.91754029  0.02599453    -0.09640
C928        C  0.15720946  0.91730989  0.07786651     0.06550
C929        C  0.14547174  0.93329052  0.09507039    -0.03410
C930        C  0.14081676  0.94994173  0.06086606    -0.07860
C931        C  0.14687452  0.95048899  0.00936112     0.05670
C932        C  0.15714815  0.93345409  0.99167793    -0.02880
Br933      Br  0.16266572  0.93006052  0.92107883    -0.02580
H934        H  0.17121968  0.90501015  0.01176068     0.09580
H935        H  0.13290091  0.96301137  0.07484793     0.07600
Br936      Br  0.13391740  0.93261878  0.16366141    -0.03010
C937        C  0.30393220  0.84483292  0.38840498    -0.09640
C938        C  0.30163139  0.85038190  0.43920177     0.06550
C939        C  0.28229505  0.85867421  0.45264356    -0.03410
C940        C  0.26503809  0.86043198  0.41570844    -0.07860
C941        C  0.26672768  0.85428465  0.36489344     0.05670
C942        C  0.28669583  0.84669331  0.35119597    -0.02880
Br943      Br  0.29064756  0.83714649  0.28349464    -0.02580
H944        H  0.31932453  0.83913022  0.37770015     0.09580
H945        H  0.25005002  0.86657977  0.42691108     0.07600
Br946      Br  0.27968700  0.86947330  0.52023687    -0.03010
C947        C  0.16515005  0.73139930  0.39440813    -0.09640
C948        C  0.17972423  0.74258020  0.34901627     0.06550
C949        C  0.19608755  0.73180372  0.32918302    -0.03410
C950        C  0.19598915  0.70896842  0.35263730    -0.07860
C951        C  0.17985255  0.69652483  0.39587249     0.05670
C952        C  0.16512142  0.70846073  0.41789016    -0.02880
Br953      Br  0.14491368  0.69415961  0.48003853    -0.02580
H954        H  0.15281925  0.73968325  0.41042558     0.09580
H955        H  0.20785583  0.70029861  0.33610513     0.07600
Br956      Br  0.21917247  0.74739350  0.27021874    -0.03010
C957        C  0.02702376  0.83578492  0.31182091    -0.09640
C958        C  0.03313487  0.85019808  0.35743414     0.06550
C959        C  0.06144388  0.87008628  0.36910513    -0.03410
C960        C  0.08338785  0.87362988  0.33742116    -0.07860
C961        C  0.07738759  0.85799768  0.29282205     0.05670
C962        C  0.04867190  0.83983800  0.27933821    -0.02880
Br963      Br  0.03747368  0.81972791  0.21681135    -0.02580
H964        H  0.00527029  0.82156277  0.30110346     0.09580
H965        H  0.10507103  0.88741814  0.34906256     0.07600
Br966      Br  0.07061068  0.89203729  0.42904758    -0.03010
C967        C  0.27407144  0.93568033  0.32668921    -0.09640
C968        C  0.26855083  0.94597833  0.28168169     0.06550
C969        C  0.28647842  0.97440422  0.26839804    -0.03410
C970        C  0.30908496  0.99207364  0.30075093    -0.07860
C971        C  0.31440264  0.98154630  0.34588303     0.05670
C972        C  0.29642226  0.95310314  0.35872501    -0.02880
Br973      Br  0.30067182  0.93738818  0.42106985    -0.02580
H974        H  0.26066438  0.91376782  0.33726471     0.09580
H975        H  0.32251113  0.51405554  0.29075693     0.07600
Br976      Br  0.28110984  0.98947131  0.20645723    -0.03010
C977        C  0.18544439  0.95375484  0.42314808    -0.09640
C978        C  0.16243033  0.94394793  0.45556657     0.06550
C979        C  0.14688100  0.91478392  0.46660994    -0.03410
C980        C  0.15218741  0.89580915  0.43984704    -0.07860
C981        C  0.17398637  0.90575944  0.40390427     0.05670
C982        C  0.19154157  0.93528589  0.39845763    -0.02880
Br983      Br  0.22371006  0.95224792  0.35543765    -0.02580
H984        H  0.19845654  0.97613694  0.41570923     0.09580
H985        H  0.13856174  0.87337428  0.44557748     0.07600
Br986      Br  0.11999592  0.90057171  0.52033169    -0.03010
C987        C  0.04710717  0.71963625  0.42331999    -0.09640
C988        C  0.06273860  0.71569478  0.46146066     0.06550
C989        C  0.09109297  0.73578294  0.46883630    -0.03410
C990        C  0.10415011  0.75844933  0.43555670    -0.07860
C991        C  0.08919433  0.76176331  0.39472741     0.05670
C992        C  0.05995673  0.74263622  0.39026289    -0.02880
Br993      Br  0.03609888  0.74693689  0.34179342    -0.02580
H994        H  0.02474869  0.70469692  0.41937634     0.09580
H995        H  0.12647229  0.77295528  0.44104603     0.07600
Br996      Br  0.11247212  0.73342027  0.52452048    -0.03010
C997        C  0.42728067  0.94998054  0.45099017    -0.09640
C998        C  0.44975728  0.95837723  0.48465731     0.06550
C999        C  0.44451776  0.94378196  0.53118338    -0.03410
C1000       C  0.41909628  0.91828648  0.53866390    -0.07860
C1001       C  0.39666777  0.90926896  0.50367774     0.05670
C1002       C  0.40036558  0.92858048  0.46386956    -0.02880
Br1003     Br  0.37069225  0.93361348  0.43547174    -0.02580
H1004       H  0.42999873  0.96142688  0.41619219     0.09580
H1005       H  0.41671223  0.90668287  0.57322067     0.07600
Br1006     Br  0.46911043  0.96012131  0.58806357    -0.03010
C1007       C  0.02785732  0.60879621  0.44972510    -0.09640
C1008       C  0.02894171  0.61529166  0.50116022     0.06550
C1009       C  0.02476984  0.59475883  0.53784846    -0.03410
C1010       C  0.01798991  0.56791436  0.52254771    -0.07860
C1011       C  0.01648683  0.56135931  0.47111796     0.05670
C1012       C  0.02214988  0.58227938  0.43453600    -0.02880
Br1013     Br  0.52225013  0.57629670  0.36363779    -0.02580
H1014       H  0.53077045  0.62420808  0.42099075     0.09580
H1015       H  0.01457451  0.55217222  0.55097498     0.07600
Br1016     Br  0.02957245  0.60252779  0.60903839    -0.03010
C1017       C  0.10592193  0.58123618  0.40165078    -0.09640
C1018       C  0.11990216  0.59635726  0.44517218     0.06550
C1019       C  0.10509797  0.58966505  0.49111783    -0.03410
C1020       C  0.07714809  0.56751099  0.49333308    -0.07860
C1021       C  0.06314960  0.55227015  0.44986473     0.05670
C1022       C  0.07776728  0.55945389  0.40360663    -0.02880
Br1023     Br  0.06002181  0.54116531  0.34159648    -0.02580
H1024       H  0.11680451  0.58684616  0.36574958     0.09580
H1025       H  0.06623311  0.56219687  0.52915491     0.07600
Br1026     Br  0.12133298  0.61129143  0.55098518    -0.03010
C1027       C  0.44213152  0.51366731  0.49595693    -0.09640
C1028       C  0.45824400  0.51427190  0.45478805     0.06550
C1029       C  0.44853521  0.51503541  0.40543477    -0.03410
C1030       C  0.42384130  0.51617520  0.39802794    -0.07860
C1031       C  0.40747088  0.51547259  0.43904341     0.05670
C1032       C  0.41676838  0.51367988  0.48861802    -0.02880
Br1033     Br  0.39441230  0.50772160  0.54776282    -0.02580
H1034       H  0.44860067  0.51171852  0.53391244     0.09580
H1035       H  0.41700711  0.51684951  0.35973829     0.07600
Br1036     Br  0.46546541  0.50954635  0.34690488    -0.03010
C1037       C  0.06941340  0.50395532  0.50394448    -0.09640
C1038       C  0.05353742  0.49582796  0.45921959     0.06550
C1039       C  0.06114292  0.98329555  0.42078887    -0.03410
C1040       C  0.08473963  0.97997096  0.42749723    -0.07860
C1041       C  0.10054614  0.48818654  0.47263818     0.05670
C1042       C  0.09165419  0.49912033  0.51191555    -0.02880
Br1043     Br  0.10719829  0.50580039  0.57936684    -0.02580
H1044       H  0.06331384  0.51271134  0.53439369     0.09580
H1045       H  0.09108227  0.97150773  0.39696783     0.07600
Br1046     Br  0.04097425  0.97110411  0.35802083    -0.03010
C1047       C  0.47976505  0.93443595  0.41539586    -0.09640
C1048       C  0.49473925  0.94841637  0.45931927     0.06550
C1049       C  0.50400741  0.93476093  0.49323870    -0.03410
C1050       C  0.49994439  0.90858756  0.48074444    -0.07860
C1051       C  0.48650455  0.89558099  0.43554829     0.05670
C1052       C  0.47573948  0.90816854  0.40317546    -0.02880
Br1053     Br  0.45600169  0.89047559  0.34202259    -0.02580
H1054       H  0.47222730  0.94458627  0.38945032     0.09580
H1055       H  0.50778174  0.89843130  0.50605062     0.07600
Br1056     Br  0.52180940  0.94947518  0.55719036    -0.03010
C1057       C  0.23338452  0.66992394  0.87386569    -0.09640
C1058       C  0.23275868  0.66292668  0.82260149     0.06550
C1059       C  0.20759127  0.65489345  0.79444159    -0.03410
C1060       C  0.18454506  0.65442030  0.81738623    -0.07860
C1061       C  0.18555007  0.66193255  0.86797879     0.05670
C1062       C  0.21018408  0.66954599  0.89646530    -0.02880
Br1063     Br  0.21266616  0.67844264  0.96692522    -0.02580
H1064       H  0.25208998  0.67597810  0.89653906     0.09580
H1065       H  0.16555938  0.64816389  0.79538332     0.07600
Br1066     Br  0.20187499  0.64319071  0.72490048    -0.03010
C1067       C  0.35054101  0.77762276  0.86585173    -0.09640
C1068       C  0.35264176  0.75447317  0.88237202     0.06550
C1069       C  0.35175089  0.74866119  0.93486942    -0.03410
C1070       C  0.34941461  0.76625894  0.96923223    -0.07860
C1071       C  0.34723917  0.78930468  0.95270059     0.05670
C1072       C  0.34733530  0.79470942  0.90039536    -0.02880
Br1073     Br  0.34089915  0.82355741  0.87368072    -0.02580
H1074       H  0.34998572  0.78165990  0.82577155     0.09580
H1075       H  0.34978845  0.76217859  0.00935039     0.07600
Br1076     Br  0.35380976  0.71735398  0.96310686    -0.03010
C1077       C  0.46618780  0.66730527  0.54525218    -0.09640
C1078       C  0.48544983  0.66507563  0.57694343     0.06550
C1079       C  0.48192838  0.66325076  0.62932872    -0.03410
C1080       C  0.45911701  0.66395922  0.64962280    -0.07860
C1081       C  0.43968187  0.66665202  0.61818746     0.05670
C1082       C  0.44343547  0.66822879  0.56501699    -0.02880
Br1083     Br  0.41968179  0.67243587  0.51583090    -0.02580
H1084       H  0.46923784  0.66882038  0.50464648     0.09580
H1085       H  0.45686386  0.66261287  0.69034153     0.07600
Br1086     Br  0.00835839  0.66106383  0.67434297    -0.03010
C1087       C  0.41963544  0.75352037  0.51390956    -0.09640
C1088       C  0.41858057  0.76170081  0.56402459     0.06550
C1089       C  0.43800939  0.78981742  0.57789073    -0.03410
C1090       C  0.45724015  0.80851790  0.54229724    -0.07860
C1091       C  0.45732015  0.80050163  0.49197522     0.05670
C1092       C  0.43844585  0.77255085  0.47814845    -0.02880
Br1093     Br  0.43569542  0.75983587  0.40999385    -0.02580
H1094       H  0.40519353  0.73224308  0.50158758     0.09580
H1095       H  0.47153929  0.83009064  0.55343460     0.07600
Br1096     Br  0.43941094  0.80511862  0.64346707    -0.03010
C1097       C  0.43046418  0.75478307  0.87275918    -0.09640
C1098       C  0.44149265  0.75910290  0.82370183     0.06550
C1099       C  0.46455126  0.78563379  0.81065868    -0.03410
C1100       C  0.47650614  0.80709182  0.84668370    -0.07860
C1101       C  0.46572132  0.80248763  0.89589499     0.05670
C1102       C  0.44267581  0.77597373  0.90894994    -0.02880
Br1103     Br  0.42734389  0.76794243  0.97597313    -0.02580
H1104       H  0.41181078  0.73499715  0.88264668     0.09580
H1105       H  0.49482077  0.82711481  0.83677353     0.07600
Br1106     Br  0.48070529  0.79313339  0.74449253    -0.03010
C1107       C  0.38251993  0.63735840  0.96282840    -0.09640
C1108       C  0.39527369  0.65950889  0.92705692     0.06550
C1109       C  0.42526408  0.67623155  0.92858904    -0.03410
C1110       C  0.44127962  0.67053493  0.96283212    -0.07860
C1111       C  0.42893794  0.64751811  0.99576834     0.05670
C1112       C  0.39906328  0.63110574  0.99645403    -0.02880
Br1113     Br  0.38011512  0.59990076  0.04219218    -0.02580
H1114       H  0.35984231  0.62372003  0.96244441     0.09580
H1115       H  0.46407378  0.68326057  0.96117587     0.07600
Br1116     Br  0.44731594  0.70574059  0.88154556    -0.03010
C1117       C  0.33295240  0.79223459  0.66847200    -0.09640
C1118       C  0.31666881  0.76497512  0.64811351     0.06550
C1119       C  0.30407507  0.76243365  0.60032575    -0.03410
C1120       C  0.31040566  0.78646163  0.57204581    -0.07860
C1121       C  0.32793561  0.81388116  0.59080610     0.05670
C1122       C  0.33805950  0.81644334  0.64102196    -0.02880
Br1123     Br  0.35762659  0.85179484  0.67546136    -0.02580
H1124       H  0.34235869  0.79478367  0.70568443     0.09580
H1125       H  0.30213772  0.78338389  0.53385113     0.07600
Br1126     Br  0.27971335  0.72716213  0.56859487    -0.03010
C1127       C  0.25126819  0.65755883  0.55804088    -0.09640
C1128       C  0.27533555  0.66201068  0.53185057     0.06550
C1129       C  0.27350536  0.65866736  0.47891480    -0.03410
C1130       C  0.24816660  0.65202401  0.45354760    -0.07860
C1131       C  0.22439618  0.64794489  0.48053235     0.05670
C1132       C  0.22619088  0.65046921  0.53329250    -0.02880
Br1133     Br  0.19601226  0.64734342  0.57365930    -0.02580
H1134       H  0.25204919  0.66040434  0.59855466     0.09580
H1135       H  0.24723754  0.65081731  0.41267219     0.07600
Br1136     Br  0.30539193  0.66549838  0.43953656    -0.03010
C1137       C  0.36319982  0.55270227  0.77488181    -0.09640
C1138       C  0.35357441  0.56875705  0.79878585     0.06550
C1139       C  0.33864671  0.55873820  0.84451646    -0.03410
C1140       C  0.33347384  0.53320517  0.86550230    -0.07860
C1141       C  0.34262361  0.51675249  0.84154658     0.05670
C1142       C  0.35780166  0.52684785  0.79566367    -0.02880
Br1143     Br  0.36996439  0.50547340  0.75772528    -0.02580
H1144       H  0.37395554  0.55972321  0.73900371     0.09580
H1145       H  0.32251391  0.52637590  0.90125370     0.07600
Br1146     Br  0.32416218  0.57884113  0.87968552    -0.03010
C1147       C  0.24885743  0.56512835  0.90251010    -0.09640
C1148       C  0.24686618  0.57531644  0.85497038     0.06550
C1149       C  0.22037362  0.56838702  0.83507580    -0.03410
C1150       C  0.19607965  0.54855880  0.85969044    -0.07860
C1151       C  0.19779353  0.53706043  0.90626061     0.05670
C1152       C  0.22453243  0.54654875  0.92892286    -0.02880
Br1153     Br  0.22942604  0.53737401  0.99726163    -0.02580
H1154       H  0.26931422  0.57216130  0.91960932     0.09580
H1155       H  0.17579242  0.54248375  0.84269451     0.07600
Br1156     Br  0.21639893  0.58822682  0.77844032    -0.03010
C1157       C  0.22457808  0.58318872  0.56959947    -0.09640
C1158       C  0.22505210  0.57601652  0.62062706     0.06550
C1159       C  0.20949989  0.54728845  0.63499174    -0.03410
C1160       C  0.19412395  0.52677074  0.59890484    -0.07860
C1161       C  0.19414708  0.53404787  0.54808259     0.05670
C1162       C  0.20928553  0.56254653  0.53342500    -0.02880
Br1163     Br  0.21126717  0.57393566  0.46401049    -0.02580
H1164       H  0.23780426  0.60460562  0.55699588     0.09580
H1165       H  0.18187221  0.50491037  0.61065084     0.07600
Br1166     Br  0.20898566  0.53416307  0.70266612    -0.03010
C1167       C  0.34152244  0.54358706  0.53897777    -0.09640
C1168       C  0.34206791  0.54954773  0.48708747     0.06550
C1169       C  0.33568674  0.57016348  0.47104535    -0.03410
C1170       C  0.32976604  0.58490470  0.50687943    -0.07860
C1171       C  0.33002710  0.57956540  0.55905096     0.05670
C1172       C  0.33560071  0.55829824  0.57485447    -0.02880
Br1173     Br  0.33814567  0.55002637  0.64468419    -0.02580
H1174       H  0.34625127  0.52766810  0.55176365     0.09580
H1175       H  0.32585699  0.60135626  0.49391952     0.07600
Br1176     Br  0.33713898  0.58074549  0.40121180    -0.03010
O1177       O  0.84181458  0.12529521  0.58133794    -0.86970
O1178       O  0.78790027  0.11909924  0.85024512    -0.87140
O1179       O  0.82896724  0.08483803  0.75089949    -0.88810
O1180       O  0.76286419  0.08847956  0.67514961    -0.87570
O1181       O  0.75275434  0.12297405  0.65341321    -0.87160
O1182       O  0.87446904  0.11739919  0.77369162    -0.88530
O1183       O  0.77574389  0.08856186  0.78361117    -0.87000
O1184       O  0.81611917  0.08980843  0.63814322    -0.86590
Zr1185     Zr  0.80874899  0.11075419  0.71412357     2.84310
O1186       O  0.79342889  0.13932187  0.74889148    -1.08570
O1187       O  0.85459179  0.13922063  0.68494486    -1.09300
C1188       C  0.82885719  0.09927767  0.59527639     1.06130
C1189       C  0.77222992  0.09540403  0.82832422     1.06080
C1190       C  0.85291980  0.09190684  0.77144996     1.09060
C1191       C  0.74757930  0.09713041  0.65343192     1.06840
H1192       H  0.83668779  0.12407512  0.80922503     0.32400
O1193       O  0.83748070  0.13635639  0.78230938    -1.29520
H1194       H  0.79748126  0.12969012  0.62307259     0.32070
O1195       O  0.80844432  0.14063882  0.65155305    -1.31200
O1196       O  0.83764607  0.20860613  0.85762271    -0.86970
O1197       O  0.88498202  0.21447909  0.58386543    -0.88470
O1198       O  0.89185975  0.16132354  0.83967112    -0.87050
O1199       O  0.75999623  0.16675005  0.75075268    -0.87090
O1200       O  0.80368985  0.18676925  0.60087039    -0.86810
O1201       O  0.91603278  0.16784477  0.69093881    -0.86610
O1202       O  0.91300898  0.24792534  0.75285494    -0.86980
O1203       O  0.84315103  0.24807772  0.68939970    -0.86450
O1204       O  0.91700414  0.21236329  0.78979623    -0.87510
O1205       O  0.79728841  0.21560596  0.66952663    -0.86670
O1206       O  0.85582735  0.16130075  0.88253126    -0.87070
O1207       O  0.89714888  0.16757094  0.61336169    -0.86790
O1208       O  0.81969273  0.16429371  0.55526554    -0.86440
O1209       O  0.77706933  0.16377244  0.82874639    -0.86850
O1210       O  0.86269990  0.24417109  0.80046069    -0.87140
O1211       O  0.89427290  0.24728304  0.64448441    -0.88480
Zr1212     Zr  0.82227365  0.16453276  0.81764801     2.83100
Zr1213     Zr  0.85414529  0.16912515  0.62149066     2.83500
Zr1214     Zr  0.88323292  0.16551693  0.75271119     2.84090
Zr1215     Zr  0.79174698  0.16865198  0.68595693     2.83360
Zr1216     Zr  0.86619790  0.22340224  0.72090193     2.84220
O1217       O  0.83734802  0.19701038  0.65470975    -1.09050
O1218       O  0.86694397  0.19377790  0.78479408    -1.08550
C1219       C  0.85148942  0.23462284  0.84445802     1.06110
C1220       C  0.89785468  0.23997608  0.59996291     1.08720
C1221       C  0.87949941  0.16079632  0.88074328     1.06280
C1222       C  0.75829257  0.16452302  0.79934995     1.06640
C1223       C  0.80137762  0.17186199  0.56281330     1.06220
C1224       C  0.91609501  0.16749024  0.64224461     1.05770
C1225       C  0.92384186  0.23858610  0.78496635     1.06200
C1226       C  0.81864083  0.24120507  0.67145365     1.05710
H1227       H  0.90285714  0.20779501  0.67755593     0.32390
O1228       O  0.88370690  0.19577486  0.68879810    -1.30150
H1229       H  0.81398361  0.20587227  0.76712738     0.32410
O1230       O  0.82095351  0.19435601  0.75369225    -1.31530
C1231       C  0.97832656  0.48250708  0.47114142     0.01800
C1232       C  0.00114512  0.47765652  0.46578870     0.01800
C1233       C  0.52882411  0.00028924  0.45633175     0.01800
C1234       C  0.53367460  0.02808391  0.45416011     0.01800
C1235       C  0.51074597  0.03285746  0.45841815     0.01800
C1236       C  0.98280044  0.00991047  0.46279089     0.01800
C1237       C  0.50990566  0.16652463  0.55362287     0.02640
C1238       C  0.51099878  0.14206817  0.54674983    -0.13510
C1239       C  0.53132781  0.14231202  0.51492969     0.00140
C1240       C  0.55017206  0.16739840  0.48939682    -0.12030
C1241       C  0.54821470  0.19156568  0.49552948     0.02640
C1242       C  0.52876287  0.19129014  0.52877284    -0.11450
H1243       H  0.49460236  0.12244929  0.56292988     0.08230
H1244       H  0.56498672  0.16765690  0.46244085     0.05760
H1245       H  0.52667747  0.20976314  0.53199034     0.05610
C1246       C  0.65612301  0.46527713  0.47648907     0.02640
C1247       C  0.67753595  0.98846991  0.50280943    -0.13510
C1248       C  0.67480134  0.01184038  0.51326888     0.00140
C1249       C  0.65082227  0.01217516  0.49744468    -0.12030
C1250       C  0.62760301  0.98813532  0.47753427     0.02640
C1251       C  0.63074200  0.46498974  0.46481445    -0.11450
H1252       H  0.69655671  0.98856945  0.51429899     0.08230
H1253       H  0.64933016  0.03067925  0.50487638     0.05760
H1254       H  0.61389220  0.44726028  0.44546445     0.05610
C1255       C  0.84970608  0.03413049  0.45104726     0.02640
C1256       C  0.87501939  0.03403304  0.45768207    -0.13510
C1257       C  0.88093872  0.01634433  0.42902353     0.00140
C1258       C  0.86151345  0.99986511  0.39065671    -0.12030
C1259       C  0.83653696  0.00074734  0.38217756     0.02640
C1260       C  0.83075284  0.01765846  0.41300428    -0.11450
H1261       H  0.88999445  0.04762552  0.48593801     0.08230
H1262       H  0.86536292  0.48582227  0.36834514     0.05760
H1263       H  0.81083808  0.01706010  0.40873888     0.05610
C1264       C  0.50969018  0.34713498  0.38916783     0.02640
C1265       C  0.99380790  0.32352175  0.42114863    -0.13510
C1266       C  0.97329851  0.32300141  0.45379198     0.00140
C1267       C  0.96897677  0.34588186  0.45345870    -0.12030
C1268       C  0.98519158  0.36931390  0.42321977     0.02640
C1269       C  0.50488119  0.36969985  0.39016830    -0.11450
H1270       H  0.99814152  0.30642801  0.42203323     0.08230
H1271       H  0.95405964  0.34631849  0.47936950     0.05760
H1272       H  0.51797459  0.38849109  0.36788368     0.05610
C1273       C  0.69947085  0.14562219  0.45399930     0.02640
C1274       C  0.67265670  0.12112779  0.45811116    -0.13510
C1275       C  0.64849872  0.12122715  0.44023745     0.00140
C1276       C  0.65125848  0.14579149  0.41871585    -0.12030
C1277       C  0.67765798  0.17039739  0.41586705     0.02640
C1278       C  0.70176864  0.17003240  0.43225904    -0.11450
H1279       H  0.67052385  0.10246744  0.47648167     0.08230
H1280       H  0.63264878  0.14595143  0.40524064     0.05760
H1281       H  0.72214184  0.18923717  0.43083722     0.05610
C1282       C  0.83515459  0.33825497  0.55546462     0.02640
C1283       C  0.86269101  0.36235275  0.55111477    -0.13510
C1284       C  0.86970583  0.38110815  0.50899073     0.00140
C1285       C  0.85047323  0.37188217  0.46876947    -0.12030
C1286       C  0.82242456  0.35183968  0.47621793     0.02640
C1287       C  0.81456784  0.33540466  0.52006172    -0.11450
H1288       H  0.87863830  0.36545334  0.57845376     0.08230
H1289       H  0.85664261  0.38130888  0.43173943     0.05760
H1290       H  0.79267087  0.31922129  0.52479916     0.05610
O1291       O  0.63180013  0.29948282  0.36642733    -0.86970
O1292       O  0.61543845  0.31859864  0.08589747    -0.87140
O1293       O  0.59172728  0.32894572  0.25861123    -0.88810
O1294       O  0.58441040  0.25552549  0.20382200    -0.87570
O1295       O  0.61687500  0.24362379  0.18011089    -0.87160
O1296       O  0.62524278  0.37581198  0.26192448    -0.88530
O1297       O  0.58587756  0.30381615  0.15387321    -0.87000
O1298       O  0.59491439  0.28075462  0.31056752    -0.86590
Zr1299     Zr  0.61273616  0.30356901  0.22790510     2.84310
O1300       O  0.63618496  0.29537243  0.16346057    -1.08570
O1301       O  0.64409031  0.33973136  0.28049692    -1.09300
C1302       C  0.60587844  0.28256600  0.35492965     1.06130
C1303       C  0.59156738  0.31069410  0.10671600     1.06080
C1304       C  0.59974899  0.35460149  0.26859757     1.09060
C1305       C  0.59123106  0.23893625  0.18324032     1.06840
H1306       H  0.62713380  0.35107208  0.16717164     0.32400
O1307       O  0.63947140  0.34495771  0.18093804    -1.29520
H1308       H  0.63155880  0.27151274  0.28225851     0.32070
O1309       O  0.64220671  0.28916397  0.26434592    -1.31200
O1310       O  0.70550911  0.36541938  0.06695049    -0.86970
O1311       O  0.72042034  0.34301888  0.34977152    -0.88470
O1312       O  0.66692699  0.40486891  0.15890731    -0.87050
O1313       O  0.66229563  0.26579515  0.11504614    -0.87090
O1314       O  0.67080534  0.25791937  0.27214967    -0.86810
O1315       O  0.67319108  0.39662819  0.31851742    -0.86610
O1316       O  0.75231635  0.40754574  0.22914497    -0.86980
O1317       O  0.74598121  0.33246607  0.18037433    -0.86450
O1318       O  0.72056332  0.42113510  0.25033199    -0.87510
O1319       O  0.71142216  0.28585618  0.17470226    -0.86670
O1320       O  0.66001323  0.37669759  0.09061419    -0.87070
O1321       O  0.67399924  0.36387126  0.37196124    -0.86790
O1322       O  0.67669439  0.28428902  0.34298053    -0.86440
O1323       O  0.65565547  0.29515269  0.06238753    -0.86850
O1324       O  0.74199560  0.38081121  0.12362725    -0.87140
O1325       O  0.75073359  0.35860952  0.28251682    -0.88480
Zr1326     Zr  0.66291825  0.33596622  0.11585189     2.83100
Zr1327     Zr  0.67359195  0.32595870  0.31794065     2.83500
Zr1328     Zr  0.67122615  0.38122929  0.23392521     2.84090
Zr1329     Zr  0.66630967  0.28204271  0.19933250     2.83360
Zr1330     Zr  0.72456991  0.35883658  0.20688468     2.84220
O1331       O  0.69759129  0.31774868  0.25352860    -1.09050
O1332       O  0.69483824  0.37263067  0.16935497    -1.08550
C1333       C  0.73182298  0.38075599  0.07921069     1.06110
C1334       C  0.74476911  0.35215892  0.32976015     1.08720
C1335       C  0.66186009  0.39856891  0.11157188     1.06280
C1336       C  0.65625531  0.27212254  0.07183675     1.06640
C1337       C  0.67551717  0.26310104  0.31975885     1.06220
C1338       C  0.67381617  0.38719328  0.36282267     1.05770
C1339       C  0.74590078  0.42470533  0.24887210     1.06200
C1340       C  0.73704972  0.30663684  0.16931328     1.05710
H1341       H  0.71327128  0.37991014  0.29590594     0.32390
O1342       O  0.70053348  0.36670472  0.27132496    -1.30150
H1343       H  0.70296456  0.32058703  0.12519279     0.32410
O1344       O  0.69325415  0.32332234  0.15255681    -1.31530
C1345       C  0.94859649  0.14054175  0.02409601     0.02640
C1346       C  0.97109225  0.16149492  0.05343368    -0.13510
C1347       C  0.99342203  0.15779484  0.07036170     0.00140
C1348       C  0.99354055  0.13350563  0.05712656    -0.12030
C1349       C  0.97154489  0.11208354  0.02892609     0.02640
C1350       C  0.94874369  0.11550407  0.01329068    -0.11450
H1351       H  0.97179803  0.18108856  0.06121271     0.08230
H1352       H  0.51152976  0.13160921  0.06836571     0.05760
H1353       H  0.93174037  0.09932691  0.99107019     0.05610
C1354       C  0.99036632  0.01937647  0.99000030     0.01800
C1355       C  0.96765791  0.49157875  0.99676223     0.01800
C1356       C  0.97279341  0.46900324  0.00349242     0.01800
C1357       C  0.50038094  0.47373628  0.99578051     0.01800
C1358       C  0.52250316  0.50134840  0.98406374     0.01800
C1359       C  0.51768270  0.02417816  0.98110521     0.01800
C1360       C  0.64551374  0.47153942  0.97675408     0.02640
C1361       C  0.62213274  0.47511160  0.97830552    -0.13510
C1362       C  0.62334865  0.49875380  0.95569202     0.00140
C1363       C  0.64804617  0.01908969  0.93219638    -0.12030
C1364       C  0.67148712  0.01553543  0.93021565     0.02640
C1365       C  0.66970562  0.49127560  0.95108707    -0.11450
H1366       H  0.60337105  0.46005388  0.99861551     0.08230
H1367       H  0.64920140  0.03798404  0.91691430     0.05760
H1368       H  0.68777331  0.48846499  0.94963017     0.05610
C1369       C  0.51362307  0.33489631  0.00679499     0.02640
C1370       C  0.99605996  0.31578803  0.97077210    -0.13510
C1371       C  0.98197344  0.32319279  0.93551765     0.00140
C1372       C  0.98514874  0.35018316  0.93703144    -0.12030
C1373       C  0.00244990  0.36972354  0.97444458     0.02640
C1374       C  0.51692015  0.36177845  0.00881990    -0.11450
H1375       H  0.99465986  0.29547260  0.96823577     0.08230
H1376       H  0.97392036  0.35561356  0.90962124     0.05760
H1377       H  0.53142600  0.37674752  0.03616006     0.05610
C1378       C  0.63767637  0.18406765  0.93005078     0.02640
C1379       C  0.66133493  0.18540583  0.90731666    -0.13510
C1380       C  0.66026432  0.16075066  0.89022165     0.00140
C1381       C  0.63528429  0.13457416  0.89622998    -0.12030
C1382       C  0.61165768  0.13284122  0.91954463     0.02640
C1383       C  0.61267539  0.15768234  0.93430106    -0.11450
H1384       H  0.68104129  0.20527919  0.90560419     0.08370
H1385       H  0.63476790  0.11544393  0.88522783     0.05760
H1386       H  0.59468356  0.15615864  0.95366957     0.05610
C1387       C  0.83897018  0.49118787  0.86844655     0.02640
C1388       C  0.81342268  0.47189614  0.89305876    -0.13510
C1389       C  0.81237500  0.45097288  0.92590396     0.00140
C1390       C  0.83658087  0.44907760  0.93276686    -0.12030
C1391       C  0.86200044  0.46878973  0.91075624     0.02640
C1392       C  0.86309680  0.48941840  0.87825119    -0.11450
H1393       H  0.79513000  0.47429733  0.88933359     0.08230
H1394       H  0.83645025  0.43416290  0.96011172     0.05760
H1395       H  0.88344631  0.00585598  0.86471082     0.05610
C1396       C  0.84838072  0.30889194  0.99127128     0.02640
C1397       C  0.83060500  0.29926478  0.03297138    -0.13510
C1398       C  0.83377645  0.31802761  0.07097937     0.00140
C1399       C  0.85783047  0.34532293  0.07145064    -0.12030
C1400       C  0.87694921  0.35493338  0.03036002     0.02640
C1401       C  0.86936597  0.33706056  0.98852829    -0.11450
H1402       H  0.81273763  0.27795177  0.03340375     0.08230
H1403       H  0.86002970  0.35908588  0.10201431     0.05760
H1404       H  0.87980498  0.34472359  0.95300776     0.05610
C1405       C  0.93273864  0.47446280  0.92784274    -0.09640
C1406       C  0.93959762  0.48490058  0.97744843     0.06550
C1407       C  0.92034416  0.48934409  0.00476305    -0.03410
C1408       C  0.89483268  0.48301588  0.98234456    -0.07860
C1409       C  0.88823854  0.47280932  0.93290083     0.05670
C1410       C  0.90731136  0.46855424  0.90535073    -0.02880
Br1411     Br  0.89940514  0.45470506  0.83746146    -0.02580
H1412       H  0.94750373  0.47125627  0.90629520     0.09580
H1413       H  0.88020482  0.48675079  0.00319304     0.07600
Br1414     Br  0.92689876  0.50453062  0.07142864    -0.03010
C1415       C  0.56039692  0.07066655  0.00095928    -0.09640
C1416       C  0.54088668  0.05261406  0.96506950     0.06550
C1417       C  0.54475319  0.06100418  0.91374399    -0.03410
C1418       C  0.56792406  0.08703791  0.89915987    -0.07860
C1419       C  0.58741540  0.10513407  0.93522375     0.05670
C1420       C  0.58345550  0.09664582  0.98652491    -0.02880
Br1421     Br  0.60973383  0.11916835  0.03819949    -0.02580
H1422       H  0.55794039  0.06435915  0.04032676     0.09580
H1423       H  0.57068820  0.09320985  0.85964786     0.07600
Br1424     Br  0.51912443  0.03726309  0.86232779    -0.03010
C1425       C  0.55914000  0.50416860  0.92681133    -0.09640
C1426       C  0.55099918  0.50614371  0.97587267     0.06550
C1427       C  0.56841916  0.00897327  0.01727383    -0.03410
C1428       C  0.59259073  0.00749810  0.00964761    -0.07860
C1429       C  0.59960924  0.50335590  0.96107088     0.05670
C1430       C  0.58317431  0.50234807  0.91917584    -0.02880
Br1431     Br  0.59102212  0.49557368  0.85198439    -0.02580
H1432       H  0.54576443  0.50210819  0.89486405     0.09580
H1433       H  0.60555547  0.00878800  0.04183134     0.07600
Br1434     Br  0.55955424  0.01398042  0.08481501    -0.03010
C1435       C  0.50234459  0.40688434  0.02786423    -0.09640
C1436       C  0.00494317  0.39792292  0.97957837     0.06550
C1437       C  0.00955494  0.41598705  0.93788558    -0.03410
C1438       C  0.00914695  0.44097564  0.94445527    -0.07860
C1439       C  0.00518707  0.44923724  0.99235961     0.05670
C1440       C  0.50279829  0.43231274  0.03453210    -0.02880
Br1441     Br  0.49979256  0.44269980  0.10193964    -0.02580
H1442       H  0.49926579  0.39369353  0.06067510     0.09580
H1443       H  0.01066352  0.45342880  0.91141755     0.07600
Br1444     Br  0.01767102  0.40848328  0.87142973    -0.03010
C1445       C  0.94280084  0.41887007  0.97778443    -0.09640
C1446       C  0.94848459  0.43989647  0.01267494     0.06550
C1447       C  0.93202793  0.43235664  0.05690088    -0.03410
C1448       C  0.90844747  0.40519358  0.06211125    -0.07860
C1449       C  0.90314524  0.38379485  0.02733065     0.05670
C1450       C  0.92353380  0.39085519  0.98875307    -0.02880
Br1451     Br  0.93262153  0.36467860  0.95932904    -0.02580
H1452       H  0.95534628  0.42380220  0.94402203     0.09580
H1453       H  0.89534018  0.40097733  0.09482004     0.07600
Br1454     Br  0.94283627  0.45675815  0.11402506    -0.03010
C1455       C  0.48341787  0.07588953  0.05587751    -0.09640
C1456       C  0.97378914  0.08677531  0.01710919     0.06550
C1457       C  0.97016672  0.07541192  0.96795287    -0.03410
C1458       C  0.97572925  0.05355948  0.95913690    -0.07860
C1459       C  0.98584080  0.04342056  0.99808736     0.05670
C1460       C  0.49018940  0.05519330  0.04646385    -0.02880
Br1461     Br  0.50389706  0.04248733  0.10194046    -0.02580
H1462       H  0.48621048  0.08391620  0.09397439     0.09580
H1463       H  0.97247870  0.04466695  0.92168765     0.07600
Br1464     Br  0.96003044  0.09006229  0.91048878    -0.03010
C1465       C  0.65496937  0.25659520  0.98078405    -0.09640
C1466       C  0.64908563  0.24998637  0.03259525     0.06550
C1467       C  0.63806811  0.22137877  0.04775201    -0.03410
C1468       C  0.63424509  0.20117621  0.01298761    -0.07860
C1469       C  0.64087406  0.20762602  0.96213896     0.05670
C1470       C  0.65116835  0.23568213  0.94566293    -0.02880
Br1471     Br  0.65979991  0.24612967  0.87598766    -0.02580
H1472       H  0.66338322  0.27809149  0.96786869     0.09580
H1473       H  0.62667767  0.17993165  0.02654869     0.07600
Br1474     Br  0.62779925  0.20638866  0.11525229    -0.03010
C1475       C  0.78929670  0.31754848  0.07084410    -0.09640
C1476       C  0.80808800  0.31218963  0.09781572     0.06550
C1477       C  0.80090829  0.30019476  0.14655588    -0.03410
C1478       C  0.77590608  0.29574434  0.16899575    -0.07860
C1479       C  0.75776187  0.30243359  0.14247007     0.05670
C1480       C  0.76431427  0.31259705  0.09241799    -0.02880
Br1481     Br  0.74080601  0.32185457  0.05232026    -0.02580
H1482       H  0.79433890  0.32604443  0.03271244     0.09580
H1483       H  0.77131644  0.28828484  0.20769071     0.07600
Br1484     Br  0.82476254  0.29025804  0.18351392    -0.03010
C1485       C  0.54253490  0.30078661  0.09383989    -0.09640
C1486       C  0.57027526  0.31295181  0.07567817     0.06550
C1487       C  0.57817201  0.33125091  0.03297485    -0.03410
C1488       C  0.55964871  0.33917263  0.01365059    -0.07860
C1489       C  0.53283145  0.32834733  0.03390895     0.05670
C1490       C  0.52372234  0.30816341  0.07289120    -0.02880
Br1491     Br  0.48614184  0.29075490  0.09900770    -0.02580
H1492       H  0.53565413  0.28604633  0.12526485     0.09580
H1493       H  0.56593199  0.35339774  0.98141019     0.07600
Br1494     Br  0.61331800  0.34669070  0.99742273    -0.03010
C1495       C  0.56814657  0.21526458  0.10308271    -0.09640
C1496       C  0.56774357  0.21488107  0.15622320     0.06550
C1497       C  0.54223912  0.19619340  0.18081211    -0.03410
C1498       C  0.51787233  0.17852114  0.15245435    -0.07860
C1499       C  0.51819572  0.17943726  0.09932510     0.05670
C1500       C  0.54380821  0.19770993  0.07477271    -0.02880
Br1501     Br  0.54634081  0.19958543  0.00241183    -0.02580
H1502       H  0.58718095  0.23021554  0.08339426     0.09580
H1503       H  0.49867149  0.16379705  0.17193815     0.07600
Br1504     Br  0.53998555  0.19397967  0.25317809    -0.03010
C1505       C  0.79569566  0.44167361  0.01400202    -0.09640
C1506       C  0.78925581  0.43523335  0.96271718     0.06550
C1507       C  0.76324467  0.41159564  0.94958036    -0.03410
C1508       C  0.74466322  0.39433227  0.98777325    -0.07860
C1509       C  0.75171944  0.40000993  0.03956045     0.05670
C1510       C  0.77753143  0.42456340  0.05214496    -0.02880
Br1511     Br  0.78992273  0.43698387  0.12013125    -0.02580
H1512       H  0.81570966  0.45985026  0.02453462     0.09580
H1513       H  0.72497220  0.37593996  0.97679540     0.07600
Br1514     Br  0.75311141  0.40136004  0.88027413    -0.03010
C1515       C  0.66274259  0.41754029  0.02599454    -0.09640
C1516       C  0.65720946  0.41730989  0.07786652     0.06550
C1517       C  0.64547174  0.43329052  0.09507040    -0.03410
C1518       C  0.64081677  0.44994173  0.06086606    -0.07860
C1519       C  0.64687453  0.45048899  0.00936112     0.05670
C1520       C  0.65714816  0.43345409  0.99167794    -0.02880
Br1521     Br  0.66266572  0.43006053  0.92107884    -0.02580
H1522       H  0.67121969  0.40501016  0.01176069     0.09580
H1523       H  0.63290091  0.46301138  0.07484793     0.07600
Br1524     Br  0.63391741  0.43261879  0.16366141    -0.03010
C1525       C  0.80393219  0.34483291  0.38840500    -0.09640
C1526       C  0.80163139  0.35038190  0.43920178     0.06550
C1527       C  0.78229505  0.35867422  0.45264357    -0.03410
C1528       C  0.76503809  0.36043199  0.41570845    -0.07860
C1529       C  0.76672768  0.35428465  0.36489345     0.05670
C1530       C  0.78669583  0.34669330  0.35119599    -0.02880
Br1531     Br  0.79064755  0.33714647  0.28349466    -0.02580
H1532       H  0.81932452  0.33913021  0.37770017     0.09580
H1533       H  0.75005003  0.36657978  0.42691109     0.07600
Br1534     Br  0.77968701  0.36947332  0.52023688    -0.03010
C1535       C  0.66515002  0.23139928  0.39440812    -0.09640
C1536       C  0.67972422  0.24258021  0.34901630     0.06550
C1537       C  0.69608757  0.23180374  0.32918307    -0.03410
C1538       C  0.69598916  0.20896844  0.35263734    -0.07860
C1539       C  0.67985255  0.19652483  0.39587251     0.05670
C1540       C  0.66512138  0.20846071  0.41789015    -0.02880
Br1541     Br  0.64491361  0.19415957  0.48003848    -0.02580
H1542       H  0.65281920  0.23968322  0.41042555     0.09580
H1543       H  0.70785587  0.20029865  0.33610520     0.07600
Br1544     Br  0.71917252  0.24739355  0.27021883    -0.03010
C1545       C  0.52702375  0.33578491  0.31182091    -0.09640
C1546       C  0.53313486  0.35019809  0.35743414     0.06550
C1547       C  0.56144387  0.37008629  0.36910512    -0.03410
C1548       C  0.58338785  0.37362989  0.33742116    -0.07860
C1549       C  0.57738759  0.35799768  0.29282205     0.05670
C1550       C  0.54867190  0.33983799  0.27933821    -0.02880
Br1551     Br  0.53747368  0.31972789  0.21681137    -0.02580
H1552       H  0.50527029  0.32156276  0.30110347     0.09580
H1553       H  0.60507103  0.38741815  0.34906255     0.07600
Br1554     Br  0.57061068  0.39203731  0.42904755    -0.03010
C1555       C  0.77407145  0.43568033  0.32668921    -0.09640
C1556       C  0.76855083  0.44597833  0.28168170     0.06550
C1557       C  0.78647841  0.47440423  0.26839806    -0.03410
C1558       C  0.80908495  0.49207364  0.30075094    -0.07860
C1559       C  0.81440264  0.48154630  0.34588304     0.05670
C1560       C  0.79642227  0.45310314  0.35872502    -0.02880
Br1561     Br  0.80067184  0.43738818  0.42106984    -0.02580
H1562       H  0.76066440  0.41376782  0.33726471     0.09580
H1563       H  0.82251113  0.01405554  0.29075691     0.07600
Br1564     Br  0.78110983  0.48947132  0.20645727    -0.03010
C1565       C  0.68544440  0.45375484  0.42314810    -0.09640
C1566       C  0.66243033  0.44394793  0.45556658     0.06550
C1567       C  0.64688099  0.41478392  0.46660995    -0.03410
C1568       C  0.65218740  0.39580915  0.43984705    -0.07860
C1569       C  0.67398637  0.40575944  0.40390429     0.05670
C1570       C  0.69154158  0.43528589  0.39845766    -0.02880
Br1571     Br  0.72371007  0.45224792  0.35543769    -0.02580
H1572       H  0.69845655  0.47613694  0.41570926     0.09580
H1573       H  0.63856173  0.37337428  0.44557748     0.07600
Br1574     Br  0.61999591  0.40057170  0.52033168    -0.03010
C1575       C  0.54710717  0.21963624  0.42331998    -0.09640
C1576       C  0.56273860  0.21569478  0.46146067     0.06550
C1577       C  0.59109296  0.23578295  0.46883631    -0.03410
C1578       C  0.60415010  0.25844934  0.43555671    -0.07860
C1579       C  0.58919433  0.26176332  0.39472741     0.05670
C1580       C  0.55995673  0.24263621  0.39026289    -0.02880
Br1581     Br  0.53609888  0.24693688  0.34179340    -0.02580
H1582       H  0.52474869  0.20469691  0.41937633     0.09580
H1583       H  0.62647229  0.27295530  0.44104605     0.07600
Br1584     Br  0.61247212  0.23342028  0.52452050    -0.03010
C1585       C  0.92728067  0.44998054  0.45099018    -0.09640
C1586       C  0.94975728  0.45837723  0.48465731     0.06550
C1587       C  0.94451777  0.44378196  0.53118339    -0.03410
C1588       C  0.91909628  0.41828647  0.53866391    -0.07860
C1589       C  0.89666777  0.40926896  0.50367775     0.05670
C1590       C  0.90036558  0.42858047  0.46386957    -0.02880
Br1591     Br  0.87069225  0.43361348  0.43547176    -0.02580
H1592       H  0.92999873  0.46142688  0.41619220     0.09580
H1593       H  0.91671223  0.40668286  0.57322067     0.07600
Br1594     Br  0.96911043  0.46012130  0.58806357    -0.03010
C1595       C  0.52785733  0.10879621  0.44972509    -0.09640
C1596       C  0.52894172  0.11529167  0.50116022     0.06550
C1597       C  0.52476985  0.09475884  0.53784846    -0.03410
C1598       C  0.51798991  0.06791436  0.52254771    -0.07860
C1599       C  0.51648684  0.06135932  0.47111796     0.05670
C1600       C  0.52214989  0.08227939  0.43453600    -0.02880
Br1601     Br  0.02225013  0.07629670  0.36363778    -0.02580
H1602       H  0.03077045  0.12420808  0.42099074     0.09580
H1603       H  0.51457451  0.05217222  0.55097497     0.07600
Br1604     Br  0.52957246  0.10252779  0.60903839    -0.03010
C1605       C  0.60592193  0.08123617  0.40165077    -0.09640
C1606       C  0.61990216  0.09635725  0.44517218     0.06550
C1607       C  0.60509797  0.08966504  0.49111782    -0.03410
C1608       C  0.57714809  0.06751099  0.49333307    -0.07860
C1609       C  0.56314960  0.05227015  0.44986472     0.05670
C1610       C  0.57776728  0.05945389  0.40360662    -0.02880
Br1611     Br  0.56002181  0.04116531  0.34159647    -0.02580
H1612       H  0.61680451  0.08684615  0.36574957     0.09580
H1613       H  0.56623311  0.06219687  0.52915490     0.07600
Br1614     Br  0.62133298  0.11129142  0.55098517    -0.03010
C1615       C  0.94213152  0.01366731  0.49595692    -0.09640
C1616       C  0.95824400  0.01427190  0.45478803     0.06550
C1617       C  0.94853521  0.01503540  0.40543476    -0.03410
C1618       C  0.92384130  0.01617520  0.39802792    -0.07860
C1619       C  0.90747088  0.01547258  0.43904340     0.05670
C1620       C  0.91676837  0.01367989  0.48861800    -0.02880
Br1621     Br  0.89441230  0.00772161  0.54776281    -0.02580
H1622       H  0.94860067  0.01171852  0.53391243     0.09580
H1623       H  0.91700711  0.01684951  0.35973827     0.07600
Br1624     Br  0.96546540  0.00954635  0.34690487    -0.03010
C1625       C  0.56941339  0.00395531  0.50394448    -0.09640
C1626       C  0.55353742  0.99582796  0.45921959     0.06550
C1627       C  0.56114292  0.48329556  0.42078888    -0.03410
C1628       C  0.58473964  0.47997097  0.42749724    -0.07860
C1629       C  0.60054614  0.98818654  0.47263818     0.05670
C1630       C  0.59165419  0.99912032  0.51191554    -0.02880
Br1631     Br  0.60719829  0.00580039  0.57936684    -0.02580
H1632       H  0.56331384  0.01271134  0.53439369     0.09580
H1633       H  0.59108227  0.47150774  0.39696784     0.07600
Br1634     Br  0.54097426  0.47110411  0.35802084    -0.03010
C1635       C  0.97976505  0.43443595  0.41539585    -0.09640
C1636       C  0.99473925  0.44841637  0.45931926     0.06550
C1637       C  0.00400742  0.43476092  0.49323869    -0.03410
C1638       C  0.99994439  0.40858755  0.48074443    -0.07860
C1639       C  0.98650455  0.39558099  0.43554828     0.05670
C1640       C  0.97573948  0.40816854  0.40317545    -0.02880
Br1641     Br  0.95600168  0.39047560  0.34202258    -0.02580
H1642       H  0.97222730  0.44458627  0.38945032     0.09580
H1643       H  0.00778174  0.39843129  0.50605060     0.07600
Br1644     Br  0.02180940  0.44947518  0.55719035    -0.03010
C1645       C  0.73338453  0.16992392  0.87386570    -0.09640
C1646       C  0.73275869  0.16292668  0.82260149     0.06550
C1647       C  0.70759129  0.15489346  0.79444159    -0.03410
C1648       C  0.68454507  0.15442032  0.81738623    -0.07860
C1649       C  0.68555008  0.16193255  0.86797880     0.05670
C1650       C  0.71018408  0.16954598  0.89646531    -0.02880
Br1651     Br  0.71266615  0.17844260  0.96692525    -0.02580
H1652       H  0.75208998  0.17597807  0.89653908     0.09580
H1653       H  0.66555940  0.14816392  0.79538332     0.07600
Br1654     Br  0.70187501  0.14319075  0.72490046    -0.03010
C1655       C  0.85054100  0.27762276  0.86585172    -0.09640
C1656       C  0.85264176  0.25447316  0.88237201     0.06550
C1657       C  0.85175089  0.24866119  0.93486941    -0.03410
C1658       C  0.84941460  0.26625893  0.96923222    -0.07860
C1659       C  0.84723917  0.28930467  0.95270058     0.05670
C1660       C  0.84733529  0.29470941  0.90039535    -0.02880
Br1661     Br  0.84089913  0.32355740  0.87368072    -0.02580
H1662       H  0.84998571  0.28165989  0.82577154     0.09580
H1663       H  0.84978845  0.26217858  0.00935038     0.07600
Br1664     Br  0.85380977  0.21735398  0.96310685    -0.03010
C1665       C  0.96618780  0.16730526  0.54525216    -0.09640
C1666       C  0.98544984  0.16507563  0.57694342     0.06550
C1667       C  0.98192839  0.16325077  0.62932871    -0.03410
C1668       C  0.95911702  0.16395924  0.64962279    -0.07860
C1669       C  0.93968187  0.16665202  0.61818744     0.05670
C1670       C  0.94343546  0.16822877  0.56501697    -0.02880
Br1671     Br  0.91968177  0.17243583  0.51583087    -0.02580
H1672       H  0.96923784  0.16882035  0.50464647     0.09580
H1673       H  0.95686387  0.16261290  0.69034152     0.07600
Br1674     Br  0.50835840  0.16106386  0.67434296    -0.03010
C1675       C  0.91963544  0.25352037  0.51390955    -0.09640
C1676       C  0.91858058  0.26170081  0.56402458     0.06550
C1677       C  0.93800939  0.28981742  0.57789072    -0.03410
C1678       C  0.95724015  0.30851790  0.54229723    -0.07860
C1679       C  0.95732015  0.30050163  0.49197521     0.05670
C1680       C  0.93844585  0.27255085  0.47814844    -0.02880
Br1681     Br  0.93569542  0.25983587  0.40999384    -0.02580
H1682       H  0.90519353  0.23224308  0.50158757     0.09580
H1683       H  0.97153929  0.33009064  0.55343458     0.07600
Br1684     Br  0.93941095  0.30511862  0.64346705    -0.03010
C1685       C  0.93046419  0.25478305  0.87275918    -0.09640
C1686       C  0.94149266  0.25910289  0.82370182     0.06550
C1687       C  0.96455126  0.28563379  0.81065868    -0.03410
C1688       C  0.97650614  0.30709182  0.84668370    -0.07860
C1689       C  0.96572132  0.30248761  0.89589499     0.05670
C1690       C  0.94267582  0.27597372  0.90894994    -0.02880
Br1691     Br  0.92734391  0.26794240  0.97597314    -0.02580
H1692       H  0.91181080  0.23499713  0.88264668     0.09580
H1693       H  0.99482077  0.32711481  0.83677352     0.07600
Br1694     Br  0.98070529  0.29313339  0.74449252    -0.03010
C1695       C  0.88251994  0.13735842  0.96282841    -0.09640
C1696       C  0.89527370  0.15950889  0.92705690     0.06550
C1697       C  0.92526409  0.17623155  0.92858900    -0.03410
C1698       C  0.94127964  0.17053493  0.96283209    -0.07860
C1699       C  0.92893795  0.14751812  0.99576833     0.05670
C1700       C  0.89906329  0.13110576  0.99645405    -0.02880
Br1701     Br  0.88011513  0.09990080  0.04219223    -0.02580
H1702       H  0.85984232  0.12372006  0.96244443     0.09580
H1703       H  0.96407379  0.18326056  0.96117582     0.07600
Br1704     Br  0.94731596  0.20574056  0.88154549    -0.03010
C1705       C  0.83295240  0.29223459  0.66847201    -0.09640
C1706       C  0.81666881  0.26497512  0.64811352     0.06550
C1707       C  0.80407506  0.26243365  0.60032577    -0.03410
C1708       C  0.81040566  0.28646163  0.57204583    -0.07860
C1709       C  0.82793561  0.31388116  0.59080611     0.05670
C1710       C  0.83805950  0.31644334  0.64102197    -0.02880
Br1711     Br  0.85762659  0.35179484  0.67546137    -0.02580
H1712       H  0.84235870  0.29478367  0.70568443     0.09580
H1713       H  0.80213771  0.28338389  0.53385115     0.07600
Br1714     Br  0.77971334  0.22716213  0.56859488    -0.03010
C1715       C  0.75126819  0.15755884  0.55804088    -0.09640
C1716       C  0.77533555  0.16201068  0.53185057     0.06550
C1717       C  0.77350536  0.15866736  0.47891480    -0.03410
C1718       C  0.74816660  0.15202402  0.45354759    -0.07860
C1719       C  0.72439618  0.14794489  0.48053235     0.05670
C1720       C  0.72619088  0.15046921  0.53329250    -0.02880
Br1721     Br  0.69601226  0.14734343  0.57365929    -0.02580
H1722       H  0.75204919  0.16040434  0.59855466     0.09580
H1723       H  0.74723754  0.15081732  0.41267219     0.07600
Br1724     Br  0.80539193  0.16549839  0.43953655    -0.03010
C1725       C  0.86319982  0.05270227  0.77488182    -0.09640
C1726       C  0.85357441  0.06875705  0.79878584     0.06550
C1727       C  0.83864670  0.05873820  0.84451645    -0.03410
C1728       C  0.83347384  0.03320517  0.86550229    -0.07860
C1729       C  0.84262361  0.01675248  0.84154658     0.05670
C1730       C  0.85780166  0.02684785  0.79566368    -0.02880
Br1731     Br  0.86996440  0.00547340  0.75772529    -0.02580
H1732       H  0.87395554  0.05972321  0.73900371     0.09580
H1733       H  0.82251390  0.02637589  0.90125369     0.07600
Br1734     Br  0.82416217  0.07884112  0.87968550    -0.03010
C1735       C  0.74885743  0.06512835  0.90251008    -0.09640
C1736       C  0.74686617  0.07531644  0.85497037     0.06550
C1737       C  0.72037362  0.06838702  0.83507579    -0.03410
C1738       C  0.69607965  0.04855880  0.85969042    -0.07860
C1739       C  0.69779353  0.03706043  0.90626059     0.05670
C1740       C  0.72453243  0.04654875  0.92892284    -0.02880
Br1741     Br  0.72942604  0.03737401  0.99726161    -0.02580
H1742       H  0.76931421  0.07216130  0.91960930     0.09580
H1743       H  0.67579242  0.04248375  0.84269450     0.07600
Br1744     Br  0.71639893  0.08822683  0.77844031    -0.03010
C1745       C  0.72457808  0.08318872  0.56959946    -0.09640
C1746       C  0.72505209  0.07601652  0.62062705     0.06550
C1747       C  0.70949989  0.04728845  0.63499173    -0.03410
C1748       C  0.69412395  0.02677074  0.59890484    -0.07860
C1749       C  0.69414708  0.03404787  0.54808259     0.05670
C1750       C  0.70928552  0.06254653  0.53342499    -0.02880
Br1751     Br  0.71126717  0.07393566  0.46401048    -0.02580
H1752       H  0.73780425  0.10460562  0.55699587     0.09580
H1753       H  0.68187221  0.00491037  0.61065084     0.07600
Br1754     Br  0.70898566  0.03416307  0.70266612    -0.03010
C1755       C  0.84152246  0.04358707  0.53897775    -0.09640
C1756       C  0.84206791  0.04954773  0.48708745     0.06550
C1757       C  0.83568673  0.07016347  0.47104534    -0.03410
C1758       C  0.82976603  0.08490469  0.50687941    -0.07860
C1759       C  0.83002710  0.07956540  0.55905095     0.05670
C1760       C  0.83560072  0.05829825  0.57485445    -0.02880
Br1761     Br  0.83814571  0.05002640  0.64468418    -0.02580
H1762       H  0.84625129  0.02766811  0.55176364     0.09580
H1763       H  0.82585697  0.10135624  0.49391950     0.07600
Br1764     Br  0.83713896  0.08074547  0.40121178    -0.03010
O1765       O  0.84181458  0.62529521  0.58133795    -0.86970
O1766       O  0.78790028  0.61909924  0.85024513    -0.87140
O1767       O  0.82896725  0.58483803  0.75089950    -0.88810
O1768       O  0.76286419  0.58847956  0.67514962    -0.87570
O1769       O  0.75275434  0.62297405  0.65341322    -0.87160
O1770       O  0.87446905  0.61739919  0.77369164    -0.88530
O1771       O  0.77574389  0.58856186  0.78361118    -0.87000
O1772       O  0.81611917  0.58980844  0.63814323    -0.86590
Zr1773     Zr  0.80874899  0.61075419  0.71412359     2.84310
O1774       O  0.79342889  0.63932187  0.74889149    -1.08570
O1775       O  0.85459179  0.63922063  0.68494487    -1.09300
C1776       C  0.82885720  0.59927767  0.59527640     1.06130
C1777       C  0.77222993  0.59540403  0.82832423     1.06080
C1778       C  0.85291981  0.59190685  0.77144997     1.09060
C1779       C  0.74757930  0.59713041  0.65343193     1.06840
H1780       H  0.83668779  0.62407512  0.80922504     0.32400
O1781       O  0.83748070  0.63635640  0.78230939    -1.29520
H1782       H  0.79748127  0.62969012  0.62307260     0.32070
O1783       O  0.80844433  0.64063883  0.65155306    -1.31200
O1784       O  0.83764607  0.70860613  0.85762271    -0.86970
O1785       O  0.88498202  0.71447909  0.58386544    -0.88470
O1786       O  0.89185976  0.66132355  0.83967114    -0.87050
O1787       O  0.75999623  0.66675005  0.75075268    -0.87090
O1788       O  0.80368985  0.68676925  0.60087040    -0.86810
O1789       O  0.91603278  0.66784478  0.69093882    -0.86610
O1790       O  0.91300898  0.74792534  0.75285495    -0.86980
O1791       O  0.84315103  0.74807772  0.68939970    -0.86450
O1792       O  0.91700414  0.71236330  0.78979624    -0.87510
O1793       O  0.79728841  0.71560596  0.66952663    -0.86670
O1794       O  0.85582735  0.66130075  0.88253127    -0.87070
O1795       O  0.89714888  0.66757094  0.61336170    -0.86790
O1796       O  0.81969273  0.66429371  0.55526555    -0.86440
O1797       O  0.77706933  0.66377244  0.82874639    -0.86850
O1798       O  0.86269990  0.74417109  0.80046070    -0.87140
O1799       O  0.89427290  0.74728305  0.64448442    -0.88480
Zr1800     Zr  0.82227365  0.66453277  0.81764802     2.83100
Zr1801     Zr  0.85414530  0.66912515  0.62149067     2.83500
Zr1802     Zr  0.88323293  0.66551694  0.75271120     2.84090
Zr1803     Zr  0.79174698  0.66865198  0.68595694     2.83360
Zr1804     Zr  0.86619791  0.72340224  0.72090194     2.84220
O1805       O  0.83734802  0.69701038  0.65470975    -1.09050
O1806       O  0.86694397  0.69377790  0.78479409    -1.08550
C1807       C  0.85148941  0.73462284  0.84445802     1.06110
C1808       C  0.89785468  0.73997608  0.59996292     1.08720
C1809       C  0.87949940  0.66079632  0.88074329     1.06280
C1810       C  0.75829257  0.66452303  0.79934995     1.06640
C1811       C  0.80137762  0.67186199  0.56281331     1.06220
C1812       C  0.91609502  0.66749025  0.64224463     1.05770
C1813       C  0.92384186  0.73858611  0.78496636     1.06200
C1814       C  0.81864084  0.74120507  0.67145364     1.05710
H1815       H  0.90285714  0.70779501  0.67755594     0.32390
O1816       O  0.88370690  0.69577486  0.68879811    -1.30150
H1817       H  0.81398361  0.70587227  0.76712738     0.32410
O1818       O  0.82095351  0.69435601  0.75369226    -1.31530
C1819       C  0.97832656  0.98250708  0.47114141     0.01800
C1820       C  0.00114511  0.97765651  0.46578869     0.01800
C1821       C  0.52882411  0.50028924  0.45633176     0.01800
C1822       C  0.53367460  0.52808392  0.45416012     0.01800
C1823       C  0.51074597  0.53285746  0.45841816     0.01800
C1824       C  0.98280044  0.50991046  0.46279090     0.01800
C1825       C  0.50990566  0.66652464  0.55362287     0.02640
C1826       C  0.51099878  0.64206817  0.54674984    -0.13510
C1827       C  0.53132780  0.64231202  0.51492970     0.00140
C1828       C  0.55017205  0.66739840  0.48939682    -0.12030
C1829       C  0.54821469  0.69156568  0.49552948     0.02640
C1830       C  0.52876287  0.69129014  0.52877284    -0.11450
H1831       H  0.49460235  0.62244929  0.56292990     0.08230
H1832       H  0.56498671  0.66765690  0.46244085     0.05760
H1833       H  0.52667747  0.70976314  0.53199034     0.05610
C1834       C  0.65612301  0.96527713  0.47648906     0.02640
C1835       C  0.67753595  0.48846991  0.50280943    -0.13510
C1836       C  0.67480134  0.51184039  0.51326889     0.00140
C1837       C  0.65082227  0.51217517  0.49744469    -0.12030
C1838       C  0.62760302  0.48813533  0.47753428     0.02640
C1839       C  0.63074200  0.96498973  0.46481445    -0.11450
H1840       H  0.69655671  0.48856945  0.51429900     0.08230
H1841       H  0.64933016  0.53067925  0.50487639     0.05760
H1842       H  0.61389220  0.94726027  0.44546445     0.05610
C1843       C  0.84970609  0.53413049  0.45104727     0.02640
C1844       C  0.87501939  0.53403304  0.45768208    -0.13510
C1845       C  0.88093872  0.51634433  0.42902354     0.00140
C1846       C  0.86151346  0.49986511  0.39065671    -0.12030
C1847       C  0.83653696  0.50074735  0.38217756     0.02640
C1848       C  0.83075284  0.51765846  0.41300428    -0.11450
H1849       H  0.88999445  0.54762552  0.48593803     0.08230
H1850       H  0.86536291  0.98582227  0.36834513     0.05760
H1851       H  0.81083809  0.51706010  0.40873889     0.05610
C1852       C  0.50969018  0.84713498  0.38916785     0.02640
C1853       C  0.99380790  0.82352175  0.42114864    -0.13510
C1854       C  0.97329852  0.82300141  0.45379199     0.00140
C1855       C  0.96897677  0.84588186  0.45345871    -0.12030
C1856       C  0.98519158  0.86931390  0.42321978     0.02640
C1857       C  0.50488119  0.86969985  0.39016831    -0.11450
H1858       H  0.99814152  0.80642801  0.42203324     0.08230
H1859       H  0.95405964  0.84631849  0.47936951     0.05760
H1860       H  0.51797460  0.88849109  0.36788369     0.05610
C1861       C  0.69947085  0.64562219  0.45399930     0.02640
C1862       C  0.67265670  0.62112780  0.45811117    -0.13510
C1863       C  0.64849872  0.62122716  0.44023746     0.00140
C1864       C  0.65125849  0.64579150  0.41871586    -0.12030
C1865       C  0.67765799  0.67039739  0.41586705     0.02640
C1866       C  0.70176865  0.67003240  0.43225902    -0.11450
H1867       H  0.67052385  0.60246744  0.47648168     0.08230
H1868       H  0.63264879  0.64595145  0.40524066     0.05760
H1869       H  0.72214186  0.68923716  0.43083720     0.05610
C1870       C  0.83515459  0.83825497  0.55546461     0.02640
C1871       C  0.86269101  0.86235275  0.55111476    -0.13510
C1872       C  0.86970583  0.88110815  0.50899072     0.00140
C1873       C  0.85047323  0.87188217  0.46876946    -0.12030
C1874       C  0.82242456  0.85183968  0.47621792     0.02640
C1875       C  0.81456784  0.83540466  0.52006171    -0.11450
H1876       H  0.87863830  0.86545334  0.57845375     0.08230
H1877       H  0.85664261  0.88130888  0.43173942     0.05760
H1878       H  0.79267087  0.81922129  0.52479915     0.05610
O1879       O  0.63180013  0.79948281  0.36642733    -0.86970
O1880       O  0.61543844  0.81859863  0.08589747    -0.87140
O1881       O  0.59172727  0.82894572  0.25861123    -0.88810
O1882       O  0.58441040  0.75552549  0.20382200    -0.87570
O1883       O  0.61687499  0.74362379  0.18011088    -0.87160
O1884       O  0.62524278  0.87581198  0.26192448    -0.88530
O1885       O  0.58587756  0.80381614  0.15387321    -0.87000
O1886       O  0.59491439  0.78075462  0.31056751    -0.86590
Zr1887     Zr  0.61273616  0.80356901  0.22790510     2.84310
O1888       O  0.63618495  0.79537243  0.16346057    -1.08570
O1889       O  0.64409031  0.83973136  0.28049692    -1.09300
C1890       C  0.60587844  0.78256599  0.35492964     1.06130
C1891       C  0.59156738  0.81069409  0.10671599     1.06080
C1892       C  0.59974900  0.85460149  0.26859757     1.09060
C1893       C  0.59123105  0.73893625  0.18324031     1.06840
H1894       H  0.62713380  0.85107208  0.16717163     0.32400
O1895       O  0.63947140  0.84495771  0.18093804    -1.29520
H1896       H  0.63155880  0.77151273  0.28225850     0.32070
O1897       O  0.64220671  0.78916397  0.26434591    -1.31200
O1898       O  0.70550910  0.86541937  0.06695048    -0.86970
O1899       O  0.72042033  0.84301888  0.34977152    -0.88470
O1900       O  0.66692698  0.90486890  0.15890731    -0.87050
O1901       O  0.66229563  0.76579515  0.11504613    -0.87090
O1902       O  0.67080534  0.75791936  0.27214965    -0.86810
O1903       O  0.67319108  0.89662819  0.31851742    -0.86610
O1904       O  0.75231635  0.90754574  0.22914496    -0.86980
O1905       O  0.74598121  0.83246606  0.18037433    -0.86450
O1906       O  0.72056332  0.92113509  0.25033198    -0.87510
O1907       O  0.71142216  0.78585618  0.17470225    -0.86670
O1908       O  0.66001323  0.87669759  0.09061419    -0.87070
O1909       O  0.67399924  0.86387126  0.37196123    -0.86790
O1910       O  0.67669440  0.78428902  0.34298051    -0.86440
O1911       O  0.65565547  0.79515269  0.06238752    -0.86850
O1912       O  0.74199560  0.88081120  0.12362724    -0.87140
O1913       O  0.75073359  0.85860952  0.28251681    -0.88480
Zr1914     Zr  0.66291825  0.83596621  0.11585188     2.83100
Zr1915     Zr  0.67359195  0.82595870  0.31794064     2.83500
Zr1916     Zr  0.67122615  0.88122928  0.23392520     2.84090
Zr1917     Zr  0.66630966  0.78204270  0.19933249     2.83360
Zr1918     Zr  0.72456991  0.85883658  0.20688467     2.84220
O1919       O  0.69759129  0.81774867  0.25352859    -1.09050
O1920       O  0.69483824  0.87263067  0.16935496    -1.08550
C1921       C  0.73182297  0.88075598  0.07921068     1.06110
C1922       C  0.74476911  0.85215892  0.32976014     1.08720
C1923       C  0.66186008  0.89856891  0.11157187     1.06280
C1924       C  0.65625531  0.77212254  0.07183674     1.06640
C1925       C  0.67551717  0.76310103  0.31975882     1.06220
C1926       C  0.67381617  0.88719327  0.36282266     1.05770
C1927       C  0.74590077  0.92470533  0.24887210     1.06200
C1928       C  0.73704972  0.80663683  0.16931328     1.05710
H1929       H  0.71327127  0.87991013  0.29590594     0.32390
O1930       O  0.70053348  0.86670471  0.27132495    -1.30150
H1931       H  0.70296456  0.82058702  0.12519278     0.32410
O1932       O  0.69325415  0.82332234  0.15255680    -1.31530
C1933       C  0.94859649  0.64054174  0.02409602     0.02640
C1934       C  0.97109224  0.66149491  0.05343369    -0.13510
C1935       C  0.99342203  0.65779482  0.07036170     0.00140
C1936       C  0.99354054  0.63350562  0.05712655    -0.12030
C1937       C  0.97154488  0.61208353  0.02892608     0.02640
C1938       C  0.94874368  0.61550406  0.01329068    -0.11450
H1939       H  0.97179802  0.68108854  0.06121272     0.08230
H1940       H  0.51152976  0.63160921  0.06836570     0.05760
H1941       H  0.93174037  0.59932690  0.99107019     0.05610
C1942       C  0.99036631  0.51937646  0.99000029     0.01800
C1943       C  0.96765791  0.99157876  0.99676224     0.01800
C1944       C  0.97279341  0.96900325  0.00349243     0.01800
C1945       C  0.50038095  0.97373629  0.99578053     0.01800
C1946       C  0.52250317  0.00134841  0.98406375     0.01800
C1947       C  0.51768270  0.52417815  0.98110520     0.01800
C1948       C  0.64551373  0.97153942  0.97675408     0.02640
C1949       C  0.62213274  0.97511160  0.97830552    -0.13510
C1950       C  0.62334865  0.99875380  0.95569202     0.00140
C1951       C  0.64804618  0.51908969  0.93219639    -0.12030
C1952       C  0.67148712  0.51553543  0.93021566     0.02640
C1953       C  0.66970561  0.99127559  0.95108706    -0.11450
H1954       H  0.60337104  0.96005389  0.99861552     0.08230
H1955       H  0.64920140  0.53798404  0.91691431     0.05760
H1956       H  0.68777331  0.98846498  0.94963016     0.05610
C1957       C  0.51362308  0.83489632  0.00679498     0.02640
C1958       C  0.99605995  0.81578803  0.97077211    -0.13510
C1959       C  0.98197343  0.82319279  0.93551766     0.00140
C1960       C  0.98514874  0.85018316  0.93703145    -0.12030
C1961       C  0.00244989  0.86972354  0.97444460     0.02640
C1962       C  0.51692017  0.86177846  0.00881990    -0.11450
H1963       H  0.99465986  0.79547261  0.96823577     0.08230
H1964       H  0.97392036  0.85561357  0.90962126     0.05760
H1965       H  0.53142602  0.87674753  0.03616006     0.05610
C1966       C  0.63767637  0.68406764  0.93005077     0.02640
C1967       C  0.66133492  0.68540583  0.90731664    -0.13510
C1968       C  0.66026432  0.66075067  0.89022164     0.00140
C1969       C  0.63528429  0.63457416  0.89622997    -0.12030
C1970       C  0.61165768  0.63284122  0.91954463     0.02640
C1971       C  0.61267539  0.65768233  0.93430105    -0.11450
H1972       H  0.68104128  0.70527919  0.90560417     0.08370
H1973       H  0.63476791  0.61544393  0.88522782     0.05760
H1974       H  0.59468356  0.65615863  0.95366956     0.05610
C1975       C  0.83897018  0.99118787  0.86844654     0.02640
C1976       C  0.81342268  0.97189613  0.89305875    -0.13510
C1977       C  0.81237500  0.95097288  0.92590395     0.00140
C1978       C  0.83658087  0.94907760  0.93276685    -0.12030
C1979       C  0.86200044  0.96878974  0.91075624     0.02640
C1980       C  0.86309680  0.98941840  0.87825119    -0.11450
H1981       H  0.79513000  0.97429732  0.88933358     0.08230
H1982       H  0.83645026  0.93416290  0.96011172     0.05760
H1983       H  0.88344631  0.50585597  0.86471082     0.05610
C1984       C  0.84838072  0.80889194  0.99127127     0.02640
C1985       C  0.83060500  0.79926478  0.03297138    -0.13510
C1986       C  0.83377645  0.81802761  0.07097937     0.00140
C1987       C  0.85783047  0.84532294  0.07145064    -0.12030
C1988       C  0.87694920  0.85493339  0.03036001     0.02640
C1989       C  0.86936597  0.83706057  0.98852829    -0.11450
H1990       H  0.81273763  0.77795177  0.03340375     0.08230
H1991       H  0.86002970  0.85908589  0.10201430     0.05760
H1992       H  0.87980497  0.84472360  0.95300776     0.05610
C1993       C  0.93273865  0.97446281  0.92784274    -0.09640
C1994       C  0.93959762  0.98490059  0.97744843     0.06550
C1995       C  0.92034417  0.98934410  0.00476305    -0.03410
C1996       C  0.89483268  0.98301589  0.98234456    -0.07860
C1997       C  0.88823854  0.97280933  0.93290083     0.05670
C1998       C  0.90731137  0.96855424  0.90535073    -0.02880
Br1999     Br  0.89940515  0.95470506  0.83746147    -0.02580
H2000       H  0.94750373  0.97125628  0.90629521     0.09580
H2001       H  0.88020482  0.98675080  0.00319304     0.07600
Br2002     Br  0.92689877  0.00453063  0.07142864    -0.03010
C2003       C  0.56039692  0.57066654  0.00095927    -0.09640
C2004       C  0.54088668  0.55261405  0.96506949     0.06550
C2005       C  0.54475319  0.56100417  0.91374398    -0.03410
C2006       C  0.56792406  0.58703791  0.89915986    -0.07860
C2007       C  0.58741540  0.60513407  0.93522374     0.05670
C2008       C  0.58345550  0.59664581  0.98652490    -0.02880
Br2009     Br  0.60973383  0.61916834  0.03819948    -0.02580
H2010       H  0.55794040  0.56435914  0.04032675     0.09580
H2011       H  0.57068820  0.59320985  0.85964785     0.07600
Br2012     Br  0.51912443  0.53726309  0.86232778    -0.03010
C2013       C  0.55914000  0.00416861  0.92681133    -0.09640
C2014       C  0.55099919  0.00614372  0.97587267     0.06550
C2015       C  0.56841915  0.50897326  0.01727383    -0.03410
C2016       C  0.59259072  0.50749809  0.00964761    -0.07860
C2017       C  0.59960924  0.00335591  0.96107088     0.05670
C2018       C  0.58317431  0.00234808  0.91917585    -0.02880
Br2019     Br  0.59102211  0.99557368  0.85198439    -0.02580
H2020       H  0.54576443  0.00210820  0.89486406     0.09580
H2021       H  0.60555547  0.50878799  0.04183134     0.07600
Br2022     Br  0.55955423  0.51398041  0.08481501    -0.03010
C2023       C  0.50234462  0.90688436  0.02786424    -0.09640
C2024       C  0.00494316  0.89792292  0.97957839     0.06550
C2025       C  0.00955494  0.91598705  0.93788560    -0.03410
C2026       C  0.00914695  0.94097565  0.94445529    -0.07860
C2027       C  0.00518707  0.94923724  0.99235962     0.05670
C2028       C  0.50279831  0.93231276  0.03453212    -0.02880
Br2029     Br  0.49979258  0.94269980  0.10193965    -0.02580
H2030       H  0.49926583  0.89369355  0.06067511     0.09580
H2031       H  0.01066352  0.95342881  0.91141757     0.07600
Br2032     Br  0.01767102  0.90848329  0.87142975    -0.03010
C2033       C  0.94280083  0.91887008  0.97778443    -0.09640
C2034       C  0.94848459  0.93989648  0.01267494     0.06550
C2035       C  0.93202793  0.93235665  0.05690088    -0.03410
C2036       C  0.90844746  0.90519358  0.06211125    -0.07860
C2037       C  0.90314524  0.88379486  0.02733065     0.05670
C2038       C  0.92353380  0.89085520  0.98875307    -0.02880
Br2039     Br  0.93262152  0.86467861  0.95932902    -0.02580
H2040       H  0.95534628  0.92380221  0.94402204     0.09580
H2041       H  0.89534017  0.90097734  0.09482004     0.07600
Br2042     Br  0.94283626  0.95675815  0.11402506    -0.03010
C2043       C  0.48341787  0.57588953  0.05587750    -0.09640
C2044       C  0.97378913  0.58677530  0.01710919     0.06550
C2045       C  0.97016672  0.57541191  0.96795287    -0.03410
C2046       C  0.97572925  0.55355947  0.95913689    -0.07860
C2047       C  0.98584079  0.54342055  0.99808735     0.05670
C2048       C  0.49018940  0.55519330  0.04646383    -0.02880
Br2049     Br  0.50389707  0.54248733  0.10194045    -0.02580
H2050       H  0.48621048  0.58391619  0.09397438     0.09580
H2051       H  0.97247869  0.54466694  0.92168764     0.07600
Br2052     Br  0.96003043  0.59006228  0.91048878    -0.03010
C2053       C  0.65496936  0.75659520  0.98078404    -0.09640
C2054       C  0.64908562  0.74998637  0.03259524     0.06550
C2055       C  0.63806810  0.72137877  0.04775200    -0.03410
C2056       C  0.63424509  0.70117621  0.01298760    -0.07860
C2057       C  0.64087405  0.70762601  0.96213895     0.05670
C2058       C  0.65116834  0.73568213  0.94566292    -0.02880
Br2059     Br  0.65979990  0.74612967  0.87598765    -0.02580
H2060       H  0.66338321  0.77809149  0.96786868     0.09580
H2061       H  0.62667766  0.67993165  0.02654868     0.07600
Br2062     Br  0.62779925  0.70638866  0.11525228    -0.03010
C2063       C  0.78929669  0.81754846  0.07084409    -0.09640
C2064       C  0.80808800  0.81218963  0.09781572     0.06550
C2065       C  0.80090830  0.80019478  0.14655589    -0.03410
C2066       C  0.77590608  0.79574435  0.16899576    -0.07860
C2067       C  0.75776186  0.80243358  0.14247007     0.05670
C2068       C  0.76431426  0.81259703  0.09241799    -0.02880
Br2069     Br  0.74080598  0.82185453  0.05232024    -0.02580
H2070       H  0.79433888  0.82604440  0.03271243     0.09580
H2071       H  0.77131645  0.78828486  0.20769073     0.07600
Br2072     Br  0.82476257  0.79025809  0.18351395    -0.03010
C2073       C  0.54253490  0.80078661  0.09383988    -0.09640
C2074       C  0.57027525  0.81295180  0.07567817     0.06550
C2075       C  0.57817201  0.83125090  0.03297484    -0.03410
C2076       C  0.55964871  0.83917262  0.01365057    -0.07860
C2077       C  0.53283145  0.82834732  0.03390894     0.05670
C2078       C  0.52372234  0.80816341  0.07289119    -0.02880
Br2079     Br  0.48614184  0.79075491  0.09900770    -0.02580
H2080       H  0.53565413  0.78604633  0.12526485     0.09580
H2081       H  0.56593199  0.85339773  0.98141016     0.07600
Br2082     Br  0.61331800  0.84669069  0.99742272    -0.03010
C2083       C  0.56814657  0.71526457  0.10308271    -0.09640
C2084       C  0.56774357  0.71488107  0.15622320     0.06550
C2085       C  0.54223911  0.69619341  0.18081211    -0.03410
C2086       C  0.51787232  0.67852114  0.15245434    -0.07860
C2087       C  0.51819571  0.67943726  0.09932510     0.05670
C2088       C  0.54380821  0.69770992  0.07477271    -0.02880
Br2089     Br  0.54634082  0.69958540  0.00241183    -0.02580
H2090       H  0.58718095  0.73021552  0.08339426     0.09580
H2091       H  0.49867148  0.66379706  0.17193814     0.07600
Br2092     Br  0.53998553  0.69397968  0.25317808    -0.03010
C2093       C  0.79569566  0.94167360  0.01400201    -0.09640
C2094       C  0.78925581  0.93523334  0.96271718     0.06550
C2095       C  0.76324467  0.91159563  0.94958036    -0.03410
C2096       C  0.74466322  0.89433227  0.98777324    -0.07860
C2097       C  0.75171944  0.90000992  0.03956044     0.05670
C2098       C  0.77753143  0.92456339  0.05214495    -0.02880
Br2099     Br  0.78992273  0.93698386  0.12013124    -0.02580
H2100       H  0.81570966  0.95985025  0.02453462     0.09580
H2101       H  0.72497220  0.87593995  0.97679539     0.07600
Br2102     Br  0.75311141  0.90136004  0.88027412    -0.03010
C2103       C  0.66274258  0.91754029  0.02599454    -0.09640
C2104       C  0.65720945  0.91730989  0.07786652     0.06550
C2105       C  0.64547174  0.93329052  0.09507040    -0.03410
C2106       C  0.64081677  0.94994173  0.06086606    -0.07860
C2107       C  0.64687452  0.95048899  0.00936112     0.05670
C2108       C  0.65714815  0.93345409  0.99167794    -0.02880
Br2109     Br  0.66266571  0.93006052  0.92107883    -0.02580
H2110       H  0.67121967  0.90501015  0.01176068     0.09580
H2111       H  0.63290091  0.96301138  0.07484793     0.07600
Br2112     Br  0.63391741  0.93261879  0.16366141    -0.03010
C2113       C  0.80393220  0.84483292  0.38840498    -0.09640
C2114       C  0.80163139  0.85038190  0.43920177     0.06550
C2115       C  0.78229505  0.85867421  0.45264356    -0.03410
C2116       C  0.76503809  0.86043198  0.41570845    -0.07860
C2117       C  0.76672768  0.85428465  0.36489344     0.05670
C2118       C  0.78669583  0.84669331  0.35119597    -0.02880
Br2119     Br  0.79064756  0.83714649  0.28349464    -0.02580
H2120       H  0.81932453  0.83913023  0.37770016     0.09580
H2121       H  0.75005002  0.86657977  0.42691109     0.07600
Br2122     Br  0.77968700  0.86947330  0.52023688    -0.03010
C2123       C  0.66515008  0.73139932  0.39440814    -0.09640
C2124       C  0.67972423  0.74258020  0.34901626     0.06550
C2125       C  0.69608754  0.73180370  0.32918298    -0.03410
C2126       C  0.69598914  0.70896840  0.35263726    -0.07860
C2127       C  0.67985257  0.69652483  0.39587249     0.05670
C2128       C  0.66512145  0.70846075  0.41789018    -0.02880
Br2129     Br  0.64491374  0.69415965  0.48003858    -0.02580
H2130       H  0.65281929  0.73968327  0.41042562     0.09580
H2131       H  0.70785581  0.70029859  0.33610508     0.07600
Br2132     Br  0.71917243  0.74739346  0.27021867    -0.03010
C2133       C  0.52702376  0.83578492  0.31182092    -0.09640
C2134       C  0.53313487  0.85019808  0.35743415     0.06550
C2135       C  0.56144388  0.87008628  0.36910514    -0.03410
C2136       C  0.58338785  0.87362988  0.33742117    -0.07860
C2137       C  0.57738759  0.85799768  0.29282205     0.05670
C2138       C  0.54867190  0.83983800  0.27933821    -0.02880
Br2139     Br  0.53747368  0.81972791  0.21681135    -0.02580
H2140       H  0.50527029  0.82156278  0.30110346     0.09580
H2141       H  0.60507103  0.88741814  0.34906257     0.07600
Br2142     Br  0.57061068  0.89203729  0.42904759    -0.03010
C2143       C  0.77407144  0.93568033  0.32668921    -0.09640
C2144       C  0.76855083  0.94597833  0.28168169     0.06550
C2145       C  0.78647842  0.97440423  0.26839805    -0.03410
C2146       C  0.80908495  0.99207364  0.30075093    -0.07860
C2147       C  0.81440264  0.98154630  0.34588303     0.05670
C2148       C  0.79642226  0.95310314  0.35872501    -0.02880
Br2149     Br  0.80067183  0.93738818  0.42106984    -0.02580
H2150       H  0.76066439  0.91376782  0.33726471     0.09580
H2151       H  0.82251113  0.51405554  0.29075693     0.07600
Br2152     Br  0.78110983  0.98947131  0.20645725    -0.03010
C2153       C  0.68544439  0.95375484  0.42314808    -0.09640
C2154       C  0.66243033  0.94394793  0.45556657     0.06550
C2155       C  0.64688100  0.91478392  0.46660995    -0.03410
C2156       C  0.65218741  0.89580914  0.43984705    -0.07860
C2157       C  0.67398637  0.90575943  0.40390428     0.05670
C2158       C  0.69154157  0.93528589  0.39845764    -0.02880
Br2159     Br  0.72371006  0.95224792  0.35543766    -0.02580
H2160       H  0.69845654  0.97613694  0.41570923     0.09580
H2161       H  0.63856174  0.87337428  0.44557749     0.07600
Br2162     Br  0.61999592  0.90057170  0.52033170    -0.03010
C2163       C  0.54710716  0.71963625  0.42332000    -0.09640
C2164       C  0.56273859  0.71569478  0.46146067     0.06550
C2165       C  0.59109296  0.73578293  0.46883630    -0.03410
C2166       C  0.60415010  0.75844933  0.43555669    -0.07860
C2167       C  0.58919433  0.76176331  0.39472741     0.05670
C2168       C  0.55995672  0.74263622  0.39026290    -0.02880
Br2169     Br  0.53609888  0.74693690  0.34179343    -0.02580
H2170       H  0.52474868  0.70469693  0.41937636     0.09580
H2171       H  0.62647229  0.77295527  0.44104602     0.07600
Br2172     Br  0.61247212  0.73342026  0.52452047    -0.03010
C2173       C  0.92728067  0.94998054  0.45099017    -0.09640
C2174       C  0.94975728  0.95837723  0.48465730     0.06550
C2175       C  0.94451776  0.94378196  0.53118338    -0.03410
C2176       C  0.91909628  0.91828648  0.53866390    -0.07860
C2177       C  0.89666777  0.90926896  0.50367774     0.05670
C2178       C  0.90036558  0.92858047  0.46386956    -0.02880
Br2179     Br  0.87069225  0.93361348  0.43547175    -0.02580
H2180       H  0.92999873  0.96142688  0.41619219     0.09580
H2181       H  0.91671223  0.90668287  0.57322067     0.07600
Br2182     Br  0.96911043  0.96012130  0.58806356    -0.03010
C2183       C  0.52785732  0.60879621  0.44972510    -0.09640
C2184       C  0.52894171  0.61529167  0.50116023     0.06550
C2185       C  0.52476984  0.59475884  0.53784847    -0.03410
C2186       C  0.51798991  0.56791436  0.52254772    -0.07860
C2187       C  0.51648683  0.56135932  0.47111797     0.05670
C2188       C  0.52214989  0.58227939  0.43453601    -0.02880
Br2189     Br  0.02225013  0.57629669  0.36363779    -0.02580
H2190       H  0.03077044  0.62420807  0.42099074     0.09580
H2191       H  0.51457451  0.55217222  0.55097498     0.07600
Br2192     Br  0.52957245  0.60252779  0.60903839    -0.03010
C2193       C  0.60592193  0.58123618  0.40165079    -0.09640
C2194       C  0.61990216  0.59635726  0.44517219     0.06550
C2195       C  0.60509797  0.58966505  0.49111783    -0.03410
C2196       C  0.57714809  0.56751100  0.49333309    -0.07860
C2197       C  0.56314960  0.55227016  0.44986473     0.05670
C2198       C  0.57776728  0.55945390  0.40360664    -0.02880
Br2199     Br  0.56002182  0.54116531  0.34159649    -0.02580
H2200       H  0.61680451  0.58684616  0.36574959     0.09580
H2201       H  0.56623311  0.56219687  0.52915491     0.07600
Br2202     Br  0.62133298  0.61129143  0.55098518    -0.03010
C2203       C  0.94213152  0.51366731  0.49595693    -0.09640
C2204       C  0.95824400  0.51427190  0.45478804     0.06550
C2205       C  0.94853521  0.51503540  0.40543477    -0.03410
C2206       C  0.92384130  0.51617520  0.39802793    -0.07860
C2207       C  0.90747088  0.51547258  0.43904341     0.05670
C2208       C  0.91676838  0.51367989  0.48861801    -0.02880
Br2209     Br  0.89441230  0.50772161  0.54776282    -0.02580
H2210       H  0.94860067  0.51171852  0.53391244     0.09580
H2211       H  0.91700711  0.51684950  0.35973828     0.07600
Br2212     Br  0.96546540  0.50954635  0.34690488    -0.03010
C2213       C  0.56941340  0.50395532  0.50394448    -0.09640
C2214       C  0.55353742  0.49582796  0.45921959     0.06550
C2215       C  0.56114292  0.98329555  0.42078888    -0.03410
C2216       C  0.58473963  0.97997096  0.42749724    -0.07860
C2217       C  0.60054614  0.48818655  0.47263818     0.05670
C2218       C  0.59165420  0.49912033  0.51191555    -0.02880
Br2219     Br  0.60719829  0.50580040  0.57936684    -0.02580
H2220       H  0.56331384  0.51271134  0.53439369     0.09580
H2221       H  0.59108227  0.97150773  0.39696784     0.07600
Br2222     Br  0.54097425  0.97110411  0.35802084    -0.03010
C2223       C  0.97976505  0.93443594  0.41539585    -0.09640
C2224       C  0.99473925  0.94841637  0.45931926     0.06550
C2225       C  0.00400741  0.93476092  0.49323869    -0.03410
C2226       C  0.99994439  0.90858756  0.48074444    -0.07860
C2227       C  0.98650455  0.89558099  0.43554829     0.05670
C2228       C  0.97573948  0.90816854  0.40317545    -0.02880
Br2229     Br  0.95600169  0.89047559  0.34202258    -0.02580
H2230       H  0.97222729  0.94458627  0.38945031     0.09580
H2231       H  0.00778174  0.89843129  0.50605062     0.07600
Br2232     Br  0.02180940  0.94947518  0.55719035    -0.03010
C2233       C  0.73338453  0.66992394  0.87386569    -0.09640
C2234       C  0.73275869  0.66292669  0.82260149     0.06550
C2235       C  0.70759128  0.65489345  0.79444159    -0.03410
C2236       C  0.68454507  0.65442030  0.81738623    -0.07860
C2237       C  0.68555008  0.66193256  0.86797879     0.05670
C2238       C  0.71018408  0.66954600  0.89646530    -0.02880
Br2239     Br  0.71266617  0.67844265  0.96692522    -0.02580
H2240       H  0.75208999  0.67597810  0.89653906     0.09580
H2241       H  0.66555939  0.64816390  0.79538332     0.07600
Br2242     Br  0.70187500  0.64319071  0.72490048    -0.03010
C2243       C  0.85054099  0.77762276  0.86585172    -0.09640
C2244       C  0.85264176  0.75447317  0.88237202     0.06550
C2245       C  0.85175089  0.74866119  0.93486941    -0.03410
C2246       C  0.84941460  0.76625894  0.96923222    -0.07860
C2247       C  0.84723916  0.78930468  0.95270058     0.05670
C2248       C  0.84733529  0.79470942  0.90039535    -0.02880
Br2249     Br  0.84089912  0.82355740  0.87368071    -0.02580
H2250       H  0.84998571  0.78165989  0.82577154     0.09580
H2251       H  0.84978845  0.76217859  0.00935038     0.07600
Br2252     Br  0.85380976  0.71735398  0.96310685    -0.03010
C2253       C  0.96618780  0.66730527  0.54525217    -0.09640
C2254       C  0.98544984  0.66507564  0.57694342     0.06550
C2255       C  0.98192839  0.66325076  0.62932872    -0.03410
C2256       C  0.95911702  0.66395923  0.64962280    -0.07860
C2257       C  0.93968187  0.66665202  0.61818746     0.05670
C2258       C  0.94343547  0.66822879  0.56501699    -0.02880
Br2259     Br  0.91968179  0.67243587  0.51583089    -0.02580
H2260       H  0.96923785  0.66882038  0.50464648     0.09580
H2261       H  0.95686386  0.66261288  0.69034153     0.07600
Br2262     Br  0.50835838  0.66106383  0.67434297    -0.03010
C2263       C  0.91963544  0.75352037  0.51390955    -0.09640
C2264       C  0.91858058  0.76170081  0.56402459     0.06550
C2265       C  0.93800940  0.78981742  0.57789073    -0.03410
C2266       C  0.95724015  0.80851790  0.54229724    -0.07860
C2267       C  0.95732015  0.80050163  0.49197521     0.05670
C2268       C  0.93844585  0.77255085  0.47814845    -0.02880
Br2269     Br  0.93569542  0.75983587  0.40999384    -0.02580
H2270       H  0.90519353  0.73224308  0.50158757     0.09580
H2271       H  0.97153929  0.83009064  0.55343459     0.07600
Br2272     Br  0.93941095  0.80511862  0.64346706    -0.03010
C2273       C  0.93046418  0.75478306  0.87275918    -0.09640
C2274       C  0.94149266  0.75910289  0.82370183     0.06550
C2275       C  0.96455126  0.78563379  0.81065869    -0.03410
C2276       C  0.97650614  0.80709182  0.84668371    -0.07860
C2277       C  0.96572132  0.80248762  0.89589499     0.05670
C2278       C  0.94267582  0.77597373  0.90894994    -0.02880
Br2279     Br  0.92734390  0.76794242  0.97597314    -0.02580
H2280       H  0.91181079  0.73499714  0.88264668     0.09580
H2281       H  0.99482077  0.82711481  0.83677354     0.07600
Br2282     Br  0.98070530  0.79313339  0.74449253    -0.03010
C2283       C  0.88251993  0.63735841  0.96282841    -0.09640
C2284       C  0.89527369  0.65950889  0.92705691     0.06550
C2285       C  0.92526408  0.67623155  0.92858903    -0.03410
C2286       C  0.94127963  0.67053493  0.96283212    -0.07860
C2287       C  0.92893794  0.64751811  0.99576834     0.05670
C2288       C  0.89906328  0.63110574  0.99645404    -0.02880
Br2289     Br  0.88011512  0.59990077  0.04219219    -0.02580
H2290       H  0.85984232  0.62372004  0.96244442     0.09580
H2291       H  0.96407378  0.68326057  0.96117586     0.07600
Br2292     Br  0.94731595  0.70574058  0.88154555    -0.03010
C2293       C  0.83295240  0.79223459  0.66847200    -0.09640
C2294       C  0.81666881  0.76497512  0.64811351     0.06550
C2295       C  0.80407507  0.76243365  0.60032575    -0.03410
C2296       C  0.81040566  0.78646163  0.57204581    -0.07860
C2297       C  0.82793561  0.81388116  0.59080610     0.05670
C2298       C  0.83805950  0.81644334  0.64102196    -0.02880
Br2299     Br  0.85762659  0.85179484  0.67546136    -0.02580
H2300       H  0.84235869  0.79478367  0.70568442     0.09580
H2301       H  0.80213772  0.78338388  0.53385114     0.07600
Br2302     Br  0.77971335  0.72716213  0.56859487    -0.03010
C2303       C  0.75126820  0.65755883  0.55804088    -0.09640
C2304       C  0.77533555  0.66201068  0.53185057     0.06550
C2305       C  0.77350537  0.65866736  0.47891480    -0.03410
C2306       C  0.74816661  0.65202402  0.45354760    -0.07860
C2307       C  0.72439618  0.64794488  0.48053235     0.05670
C2308       C  0.72619088  0.65046921  0.53329250    -0.02880
Br2309     Br  0.69601227  0.64734342  0.57365929    -0.02580
H2310       H  0.75204919  0.66040434  0.59855466     0.09580
H2311       H  0.74723755  0.65081731  0.41267219     0.07600
Br2312     Br  0.80539193  0.66549838  0.43953656    -0.03010
C2313       C  0.86319983  0.55270227  0.77488182    -0.09640
C2314       C  0.85357442  0.56875705  0.79878585     0.06550
C2315       C  0.83864671  0.55873821  0.84451647    -0.03410
C2316       C  0.83347385  0.53320518  0.86550231    -0.07860
C2317       C  0.84262362  0.51675249  0.84154659     0.05670
C2318       C  0.85780166  0.52684785  0.79566369    -0.02880
Br2319     Br  0.86996440  0.50547340  0.75772529    -0.02580
H2320       H  0.87395554  0.55972321  0.73900372     0.09580
H2321       H  0.82251392  0.52637590  0.90125371     0.07600
Br2322     Br  0.82416219  0.57884113  0.87968552    -0.03010
C2323       C  0.74885743  0.56512836  0.90251009    -0.09640
C2324       C  0.74686618  0.57531644  0.85497038     0.06550
C2325       C  0.72037363  0.56838702  0.83507580    -0.03410
C2326       C  0.69607966  0.54855880  0.85969043    -0.07860
C2327       C  0.69779353  0.53706044  0.90626060     0.05670
C2328       C  0.72453243  0.54654875  0.92892285    -0.02880
Br2329     Br  0.72942604  0.53737401  0.99726162    -0.02580
H2330       H  0.76931422  0.57216130  0.91960932     0.09580
H2331       H  0.67579242  0.54248376  0.84269451     0.07600
Br2332     Br  0.71639893  0.58822682  0.77844032    -0.03010
C2333       C  0.72457808  0.58318872  0.56959947    -0.09640
C2334       C  0.72505210  0.57601652  0.62062706     0.06550
C2335       C  0.70949989  0.54728845  0.63499174    -0.03410
C2336       C  0.69412395  0.52677074  0.59890485    -0.07860
C2337       C  0.69414708  0.53404787  0.54808260     0.05670
C2338       C  0.70928553  0.56254653  0.53342500    -0.02880
Br2339     Br  0.71126717  0.57393566  0.46401049    -0.02580
H2340       H  0.73780426  0.60460562  0.55699588     0.09580
H2341       H  0.68187221  0.50491037  0.61065085     0.07600
Br2342     Br  0.70898567  0.53416307  0.70266613    -0.03010
C2343       C  0.84152246  0.54358707  0.53897776    -0.09640
C2344       C  0.84206792  0.54954773  0.48708746     0.06550
C2345       C  0.83568674  0.57016347  0.47104535    -0.03410
C2346       C  0.82976603  0.58490470  0.50687942    -0.07860
C2347       C  0.83002711  0.57956540  0.55905096     0.05670
C2348       C  0.83560072  0.55829825  0.57485446    -0.02880
Br2349     Br  0.83814570  0.55002639  0.64468419    -0.02580
H2350       H  0.84625129  0.52766811  0.55176364     0.09580
H2351       H  0.82585698  0.60135625  0.49391952     0.07600
Br2352     Br  0.83713897  0.58074548  0.40121179    -0.03010
loop_ 
_geom_bond_atom_site_label_1 
_geom_bond_atom_site_label_2 
_geom_bond_distance 
_geom_bond_site_symmetry_2 
_ccdc_geom_bond_type 
O1          Zr37   2.411       .  S
O1           C12   1.287       .  A
O2          Zr36   2.403       .  S
O2           C13   1.285       .  A
O3           Zr9   2.403       .  S
O3           C14   1.286       .  A
O4           Zr9   2.403       .  S
O4           C15   1.286       .  A
O5          Zr39   2.494       .  S
O5           C15   1.304       .  A
O6          Zr38   2.500       .  S
O6           C14   1.302       .  A
O7           Zr9   2.438       .  S
O7           C13   1.292       .  A
O8           Zr9   2.468       .  S
O8           C12   1.297       .  A
Zr9          O10   2.332       .  S
Zr9          O11   2.329       .  S
Zr9          O19   2.326       .  S
Zr9          O17   2.341       .  S
O10         Zr36   2.349       .  S
O10         Zr39   2.339       .  S
O11         Zr37   2.346       .  S
O11         Zr38   2.341       .  S
C12         C583   1.484       .  S
C13         C560   1.452       .  S
C14         C550   1.475       .  S
C15         C570   1.477       .  S
H16          O17   0.962       .  S
O17         Zr36   2.315       .  S
O17         Zr38   2.334       .  S
H18          O19   0.963       .  S
O19         Zr37   2.331       .  S
O19         Zr39   2.356       .  S
O20         Zr36   2.387       .  S
O20          C43   1.282       .  A
O21         Zr37   2.407       .  S
O21          C44   1.287       .  A
O22         Zr38   2.375       .  S
O22          C45   1.281       .  A
O23         Zr39   2.425       .  S
O23          C46   1.290       .  A
O24         Zr39   2.410       .  S
O24          C47   1.272       .  A
O25         Zr38   2.403       .  S
O25          C48   1.288       .  A
O26         Zr40   2.372       .  S
O26          C49   1.277       .  A
O27         Zr40   2.418       .  S
O27          C50   1.288       .  A
O28         Zr38   2.498       .  S
O28          C49   1.301       .  A
O29         Zr39   2.481       .  S
O29          C50   1.302       .  A
O30         Zr36   2.576       .  S
O30          C45   1.318       .  A
O31         Zr37   2.423       .  S
O31          C48   1.287       .  A
O32         Zr37   2.481       .  S
O32          C47   1.290       .  A
O33         Zr36   2.487       .  S
O33          C46   1.303       .  A
O34         Zr40   2.464       .  S
O34          C43   1.298       .  A
O35         Zr40   2.480       .  S
O35          C44   1.298       .  A
Zr36         O42   2.322       .  S
Zr36         O54   2.370       .  S
Zr37         O41   2.342       .  S
Zr37         O52   2.356       .  S
Zr38         O42   2.328       .  S
Zr38         O52   2.351       .  S
Zr39         O41   2.337       .  S
Zr39         O54   2.343       .  S
Zr40         O41   2.315       .  S
Zr40         O42   2.350       .  S
Zr40         O54   2.343       .  S
Zr40         O52   2.347       .  S
C43         C480   1.471       .  S
C44         C500   1.500       .  S
C45         C520   1.515       .  S
C46         C470   1.501       .  S
C47         C540   1.488       .  S
C48         C493   1.474       .  S
C49         C510   1.471       .  S
C50         C530   1.494       .  S
H51          O52   0.966       .  S
H53          O54   0.966       .  S
C55         C410   1.500       .  S
C55          C56   1.419       .  A
C55         C648   1.417       .  A
C56         C460   1.477       .  S
C56        C1821   1.419       .  A
C57         C450   1.501   1_545  S
C57          C58   1.416       .  A
C57        C1820   1.419   1_545  A
C58         C433   1.493       .  S
C58          C59   1.419       .  A
C59         C423   1.480       .  S
C59        C1236   1.417   1_455  A
C60         C440   1.500       .  S
C60         C643   1.417   1_545  A
C60        C1235   1.417       .  A
C61        C1666   1.452   1_455  S
C61          C62   1.394       .  A
C61          C66   1.389       .  A
C62          C63   1.402       .  A
C62          H67   1.084   1_455  S
C63         C420   1.478       .  S
C63          C64   1.408       .  A
C64          C65   1.402       .  A
C64          H68   1.084       .  S
C65         C400   1.459       .  S
C65          C66   1.387       .  A
C66          H69   1.086       .  S
C70         C390   1.498       .  S
C70          C75   1.419       .  A
C70         C659   1.409       .  A
C71          C72   1.402   1_565  A
C71         C658   1.409       .  A
C71          H76   1.084       .  S
C72         C573   1.471       .  S
C72          C73   1.389       .  A
C73          C74   1.397   1_545  A
C73          H77   1.085       .  S
C74         C453   1.495       .  S
C74         C663   1.417       .  A
C75         C662   1.417       .  A
C75          H78   1.077       .  S
C79         C580   1.483       .  S
C79          C80   1.405       .  A
C79          C84   1.401       .  A
C80          C81   1.407       .  A
C80          H85   1.083       .  S
C81         C443   1.505       .  S
C81          C82   1.418   1_545  A
C82          C83   1.415   1_565  A
C82         H674   1.083       .  S
C83         C971   1.489   1_545  S
C83          C84   1.401       .  A
C84          H87   1.084       .  S
H86         C670   1.083       .  S
C88         C370   1.483       .  S
C88          C93   1.397       .  A
C88        C1265   1.418   1_455  A
C89          C90   1.418       .  A
C89        C1264   1.418       .  A
C89          H94   1.083       .  S
C90         C503   1.488       .  S
C90          C91   1.397       .  A
C91          C92   1.388       .  A
C91          H95   1.085       .  S
C92         C463   1.454       .  S
C92        C1269   1.392       .  A
C93        C1268   1.392   1_455  A
C93          H96   1.085       .  S
C97         C543   1.481       .  S
C97          C98   1.412       .  A
C97         C102   1.402       .  A
C98          C99   1.408       .  A
C98         H103   1.084       .  S
C99         C430   1.479       .  S
C99         C100   1.398       .  A
C100        C101   1.399       .  A
C100        H104   1.085       .  S
C101        C363   1.475       .  S
C101        C102   1.401       .  A
C102        H105   1.084       .  S
C106        C533   1.507       .  S
C106        C107   1.426       .  A
C106        C111   1.408       .  A
C107        C108   1.427       .  A
C107        H112   1.076       .  S
C108        C413   1.515       .  S
C108        C109   1.397       .  A
C109        C110   1.384       .  A
C109        H113   1.077       .  S
C110        C350   1.469       .  S
C110        C111   1.393       .  A
C111        H114   1.084       .  S
O115       Zr151   2.384       .  S
O115        C126   1.283       .  A
O116       Zr150   2.410       .  S
O116        C127   1.284       .  A
O117       Zr123   2.376       .  S
O117        C128   1.280       .  A
O118       Zr123   2.384       .  S
O118        C129   1.280       .  A
O119       Zr153   2.510       .  S
O119        C129   1.303       .  A
O120       Zr152   2.513       .  S
O120        C128   1.305       .  A
O121       Zr123   2.443       .  S
O121        C127   1.294       .  A
O122       Zr123   2.460       .  S
O122        C126   1.295       .  A
Zr123       O124   2.332       .  S
Zr123       O125   2.327       .  S
Zr123       O133   2.332       .  S
Zr123       O131   2.341       .  S
O124       Zr150   2.322       .  S
O124       Zr153   2.317       .  S
O125       Zr151   2.321       .  S
O125       Zr152   2.343       .  S
C126        C403   1.480       .  S
C127        C310   1.478       .  S
C128        C373   1.488       .  S
C129        C320   1.485       .  S
H130        O131   0.964       .  S
O131       Zr150   2.366       .  S
O131       Zr152   2.343       .  S
H132        O133   0.965       .  S
O133       Zr151   2.360       .  S
O133       Zr153   2.339       .  S
O134       Zr150   2.442       .  S
O134        C157   1.293       .  A
O135       Zr151   2.397       .  S
O135        C158   1.286       .  A
O136       Zr152   2.434       .  S
O136        C159   1.292       .  A
O137       Zr153   2.379       .  S
O137        C160   1.279       .  A
O138       Zr153   2.407       .  S
O138        C161   1.289       .  A
O139       Zr152   2.385       .  S
O139        C162   1.283       .  A
O140       Zr154   2.398       .  S
O140        C163   1.283       .  A
O141       Zr154   2.403       .  S
O141        C164   1.285       .  A
O142       Zr152   2.518       .  S
O142        C163   1.307       .  A
O143       Zr153   2.477       .  S
O143        C164   1.298       .  A
O144       Zr150   2.416       .  S
O144        C159   1.290       .  A
O145       Zr151   2.537       .  S
O145        C162   1.310       .  A
O146       Zr151   2.470       .  S
O146        C161   1.299       .  A
O147       Zr150   2.525       .  S
O147        C160   1.308       .  A
O148       Zr154   2.458       .  S
O148        C157   1.295       .  A
O149       Zr154   2.455       .  S
O149        C158   1.294       .  A
Zr150       O156   2.364       .  S
Zr150       O168   2.311       .  S
Zr151       O155   2.352       .  S
Zr151       O166   2.315       .  S
Zr152       O156   2.351       .  S
Zr152       O166   2.339       .  S
Zr153       O155   2.339       .  S
Zr153       O168   2.336       .  S
Zr154       O155   2.328       .  S
Zr154       O156   2.333       .  S
Zr154       O168   2.337       .  S
Zr154       O166   2.344       .  S
C157        C333   1.499       .  S
C158        C353   1.473       .  S
C159        C340   1.472       .  S
C160        C290   1.502       .  S
C161        C360   1.473       .  S
C162        C393   1.499       .  S
C163        C380   1.483       .  S
C164        C303   1.466       .  S
H165        O166   0.963       .  S
H167        O168   0.962       .  S
C169        C523   1.508   1_554  S
C169        C170   1.421       .  A
C169        C174   1.417       .  A
C170        C171   1.411       .  A
C170        H175   1.083       .  S
C171       C1499   1.490       .  S
C171        C172   1.392       .  A
C172        C173   1.403       .  A
C172       H1352   1.085       .  S
C173        C280   1.499       .  S
C173        C174   1.417       .  A
C174        H177   1.082   1_554  S
H176       C1348   1.085   1_455  S
C178        C283   1.486       .  S
C178        C767   1.414   1_545  A
C178       C1359   1.410       .  A
C179        C230   1.480       .  S
C179        C180   1.418   1_556  A
C179        C766   1.414       .  A
C180        C270   1.498       .  S
C180       C1357   1.421   1_554  A
C181       C1439   1.506       .  S
C181        C182   1.419       .  A
C181       C1356   1.421   1_456  A
C182        C250   1.470       .  S
C182        C771   1.413       .  A
C183        C240   1.495       .  S
C183       C1354   1.410   1_455  A
C183        C770   1.413       .  A
C184        C343   1.469   1_556  S
C184        C185   1.398       .  A
C184        C189   1.397       .  A
C185        C186   1.398       .  A
C185        H190   1.085       .  S
C186        C253   1.460       .  S
C186        C775   1.396       .  A
C187        C188   1.401       .  A
C187        C774   1.396   1_545  A
C187        H191   1.084       .  S
C188        C563   1.472       .  S
C188        C777   1.397   1_545  A
C189        C776   1.397       .  A
C189        H192   1.082       .  S
C193        C313   1.458       .  S
C193        C198   1.400       .  A
C193       C1370   1.387   1_454  A
C194        C195   1.390       .  A
C194       C1369   1.387   1_556  A
C194        H199   1.086       .  S
C195        C513   1.475       .  S
C195        C196   1.408       .  A
C196        C197   1.418       .  A
C196        H200   1.081       .  S
C197        C260   1.498       .  S
C197       C1374   1.407   1_556  A
C198       C1373   1.407   1_554  A
C198        H201   1.084       .  S
C202        C293   1.494       .  S
C202        C203   1.408       .  A
C202        C207   1.411       .  A
C203        C204   1.410       .  A
C203        H208   1.083       .  S
C204        C473   1.488       .  S
C204        C205   1.409       .  A
C205        C206   1.404       .  A
C205        H209   1.084       .  S
C206        C243   1.489       .  S
C206        C207   1.402       .  A
C207        H210   1.085       .  S
C211       C1141   1.491       .  S
C211        C212   1.421       .  A
C211        C216   1.401       .  A
C212        C213   1.413       .  A
C212        H217   1.083       .  S
C213        C330   1.486       .  S
C213        C214   1.398       .  A
C214        C215   1.392       .  A
C214        H218   1.085       .  S
C215        C233   1.462       .  S
C215        C216   1.394       .  A
C216        H807   1.084       .  S
H219        C804   1.084   1_545  S
C220        C483   1.473       .  S
C220        C221   1.392   1_556  A
C220        C225   1.390       .  A
C221        C222   1.397       .  A
C221        H226   1.084       .  S
C222        C300   1.470       .  S
C222        C223   1.413       .  A
C223        C224   1.420       .  A
C223        H227   1.079       .  S
C224        C273   1.513       .  S
C224        C225   1.403   1_554  A
C225        H228   1.071       .  S
C229        C230   1.408       .  A
C229        C234   1.393       .  A
C229        H236   1.084       .  S
C230        C231   1.411   1_556  A
C231        C232   1.391   1_554  A
C231       Br238   1.912       .  S
C232        C233   1.400       .  A
C232        H237   1.084   1_556  S
C233        C234   1.400       .  A
C234       Br235   1.917       .  S
C239        C240   1.400   1_554  A
C239        C244   1.401   1_554  A
C239        H246   1.082       .  S
C240        C241   1.412       .  A
C241        C242   1.406       .  A
C241       Br248   1.918       .  S
C242        C243   1.404       .  A
C242        H247   1.083       .  S
C243        C244   1.412       .  A
C244       Br245   1.918   1_556  S
C249        C250   1.401       .  A
C249        C254   1.393       .  A
C249        H256   1.082       .  S
C250        C839   1.404   1_556  A
C251        C252   1.390       .  A
C251        C838   1.404   1_554  A
C251       Br258   1.917       .  S
C252        C841   1.400   1_554  A
C252        H257   1.084       .  S
C253        C254   1.406       .  A
C253        C840   1.400   1_556  A
C254       Br255   1.919       .  S
C259        C264   1.403       .  A
C259       C1436   1.410   1_554  A
C259        H266   1.083   1_455  S
C260        C261   1.412       .  A
C260       C1435   1.410   1_556  A
C261        C262   1.402       .  A
C261       Br268   1.919       .  S
C262        C263   1.408       .  A
C262        H267   1.082       .  S
C263       C1357   1.506       .  S
C263       C1440   1.409   1_556  A
C264       C1439   1.409   1_554  A
C264       Br265   1.914   1_455  S
C269        C270   1.395   1_556  A
C269        C274   1.389       .  A
C269        H276   1.080       .  S
C270        C271   1.411       .  A
C271        C272   1.405       .  A
C271       Br278   1.915       .  S
C272        C273   1.413       .  A
C272        H277   1.078       .  S
C273        C274   1.423   1_554  A
C274       Br275   1.926       .  S
C279        C284   1.394       .  A
C279       C1456   1.409       .  A
C279        H286   1.083       .  S
C280        C281   1.418   1_554  A
C280       C1455   1.409       .  A
C281        C282   1.408       .  A
C281       Br288   1.918       .  S
C282        C283   1.404       .  A
C282        H287   1.083       .  S
C283       C1460   1.404   1_556  A
C284       C1459   1.404   1_554  A
C284       Br285   1.923   1_655  S
C289        C290   1.412   1_556  A
C289        C294   1.419       .  A
C289        H296   1.083       .  S
C290        C291   1.427       .  A
C291        C292   1.384       .  A
C291       Br298   1.924       .  S
C292        C293   1.391   1_554  A
C292        H297   1.083       .  S
C293        C294   1.415       .  A
C294       Br295   1.916       .  S
C299        C300   1.397       .  A
C299        C304   1.387       .  A
C299        H306   1.085       .  S
C300        C301   1.407       .  A
C301        C302   1.407       .  A
C301       Br308   1.914       .  S
C302        C303   1.406       .  A
C302        H307   1.082       .  S
C303        C304   1.408       .  A
C304       Br305   1.919       .  S
C309        C310   1.408       .  A
C309        C314   1.397       .  A
C309        H316   1.083       .  S
C310        C311   1.421       .  A
C311        C312   1.387       .  A
C311       Br318   1.924   1_554  S
C312        C313   1.392       .  A
C312        H317   1.085   1_554  S
C313        C314   1.403       .  A
C314       Br315   1.918   1_455  S
C319        C320   1.406       .  A
C319        C324   1.404       .  A
C319        H326   1.084       .  S
C320        C321   1.412       .  A
C321        C322   1.407       .  A
C321       Br328   1.918       .  S
C322        C323   1.405       .  A
C322        H327   1.083   1_455  S
C323       C1347   1.490   1_455  S
C323        C324   1.410       .  A
C324       Br325   1.918       .  S
C329        C330   1.402   1_554  A
C329        C334   1.396       .  A
C329        H336   1.084       .  S
C330        C331   1.406       .  A
C331        C332   1.409       .  A
C331       Br338   1.916       .  S
C332        C333   1.414   1_556  A
C332        H337   1.083       .  S
C333        C334   1.418       .  A
C334       Br335   1.923       .  S
C339        C340   1.407       .  A
C339        C344   1.391   1_554  A
C339        H346   1.083       .  S
C340        C341   1.412       .  A
C341        C342   1.392       .  A
C341       Br348   1.923       .  S
C342        C343   1.403       .  A
C342        H347   1.084       .  S
C343        C344   1.406   1_554  A
C344       Br345   1.922       .  S
C349        C350   1.403       .  A
C349        C354   1.397       .  A
C349        H356   1.084       .  S
C350        C351   1.405       .  A
C351        C352   1.391       .  A
C351       Br358   1.921       .  S
C352        C353   1.406       .  A
C352        H357   1.084       .  S
C353        C354   1.412       .  A
C354       Br355   1.918       .  S
C359        C360   1.403       .  A
C359        C364   1.401       .  A
C359        H366   1.084       .  S
C360        C361   1.414       .  A
C361        C362   1.394       .  A
C361       Br368   1.921       .  S
C362        C363   1.397       .  A
C362        H367   1.084       .  S
C363        C364   1.411       .  A
C364       Br365   1.919       .  S
C369        C370   1.394       .  A
C369        C374   1.399       .  A
C369        H376   1.084       .  S
C370        C371   1.411       .  A
C371        C372   1.407       .  A
C371       Br378   1.909       .  S
C372        C373   1.404       .  A
C372        H377   1.084       .  S
C373        C374   1.421       .  A
C374       Br375   1.917       .  S
C379        C380   1.407       .  A
C379        C384   1.397       .  A
C379        H386   1.084       .  S
C380        C381   1.407       .  A
C381        C382   1.413       .  A
C381       Br388   1.914       .  S
C382        C383   1.412       .  A
C382        H975   1.083       .  S
C383        C671   1.489       .  S
C383        C384   1.405       .  A
C384       Br385   1.919       .  S
H387        C970   1.083   1_545  S
C389        C390   1.397       .  A
C389        C394   1.394       .  A
C389        H396   1.084       .  S
C390        C391   1.415       .  A
C391        C392   1.419       .  A
C391       Br398   1.915       .  S
C392        C393   1.411       .  A
C392        H397   1.083       .  S
C393        C394   1.417       .  A
C394       Br395   1.909       .  S
C399        C400   1.403       .  A
C399        C404   1.396       .  A
C399        H406   1.084       .  S
C400        C401   1.395       .  A
C401        C402   1.389       .  A
C401       Br408   1.918       .  S
C402        C403   1.415       .  A
C402        H407   1.083       .  S
C403        C404   1.412       .  A
C404       Br405   1.921       .  S
C409        C410   1.393       .  A
C409        C414   1.390       .  A
C409        H416   1.077       .  S
C410        C411   1.412       .  A
C411        C412   1.406       .  A
C411       Br418   1.912       .  S
C412        C413   1.411       .  A
C412        H417   1.079       .  S
C413        C414   1.428       .  A
C414       Br415   1.932       .  S
C419        C420   1.404       .  A
C419        C424   1.394       .  A
C419       H1602   1.083       .  S
C420        C421   1.410       .  A
C421        C422   1.395       .  A
C421       Br428   1.922       .  S
C422        C423   1.403       .  A
C422        H427   1.084       .  S
C423        C424   1.406       .  A
C424      Br1601   1.909       .  S
Br425      C1600   1.909       .  S
H426       C1595   1.083       .  S
C429        C430   1.402       .  A
C429        C434   1.400       .  A
C429        H436   1.084       .  S
C430        C431   1.408       .  A
C431        C432   1.399       .  A
C431       Br438   1.914       .  S
C432        C433   1.403       .  A
C432        H437   1.083       .  S
C433        C434   1.410       .  A
C434       Br435   1.915       .  S
C439        C440   1.402       .  A
C439        C444   1.407       .  A
C439        H446   1.083       .  S
C440        C441   1.413       .  A
C441        C442   1.403       .  A
C441       Br448   1.920       .  S
C442        C443   1.406       .  A
C442        H447   1.083       .  S
C443        C444   1.422       .  A
C444       Br445   1.921       .  S
C449        C450   1.398   1_545  A
C449        C454   1.392   1_545  A
C449        H456   1.084       .  S
C450       C1039   1.417       .  A
C451        C452   1.409       .  A
C451       C1038   1.417       .  A
C451       Br458   1.915       .  S
C452       C1041   1.406       .  A
C452        H457   1.083       .  S
C453        C454   1.417       .  A
C453       C1040   1.406       .  A
C454       Br455   1.927   1_565  S
C459        C460   1.407       .  A
C459        C464   1.391       .  A
C459        H466   1.084       .  S
C460        C461   1.412       .  A
C461        C462   1.387       .  A
C461       Br468   1.916       .  S
C462        C463   1.398       .  A
C462        H467   1.084       .  S
C463        C464   1.398       .  A
C464       Br465   1.916       .  S
C469        C470   1.410       .  A
C469        C474   1.407       .  A
C469        H476   1.083       .  S
C470        C471   1.425       .  A
C471        C472   1.401       .  A
C471       Br478   1.926       .  S
C472        C473   1.398       .  A
C472        H477   1.084       .  S
C473        C474   1.410       .  A
C474       Br475   1.919       .  S
C479        C480   1.403       .  A
C479        C484   1.395       .  A
C479        H486   1.084       .  S
C480        C481   1.417       .  A
C481        C482   1.391       .  A
C481       Br488   1.927       .  S
C482        C483   1.399       .  A
C482        H487   1.084   1_556  S
C483        C484   1.411       .  A
C484       Br485   1.921       .  S
C489        C490   1.396       .  A
C489        C494   1.387       .  A
C489        H496   1.085       .  S
C490       C1237   1.452       .  S
C490        C491   1.397       .  A
C491        C492   1.390       .  A
C491      Br1674   1.919       .  S
C492        C493   1.412       .  A
C492        H497   1.083       .  S
C493        C494   1.419       .  A
C494       Br495   1.927       .  S
Br498      C1667   1.919   1_455  S
C499        C500   1.417       .  A
C499        C504   1.401       .  A
C499        H506   1.083       .  S
C500        C501   1.416       .  A
C501        C502   1.401       .  A
C501       Br508   1.922       .  S
C502        C503   1.409       .  A
C502        H507   1.084       .  S
C503        C504   1.403       .  A
C504       Br505   1.919       .  S
C509        C510   1.405       .  A
C509        C514   1.396       .  A
C509        H516   1.084       .  S
C510        C511   1.409       .  A
C511        C512   1.402       .  A
C511       Br518   1.916       .  S
C512        C513   1.403       .  A
C512        H517   1.083       .  S
C513        C514   1.408       .  A
C514       Br515   1.920       .  S
C519        C520   1.413       .  A
C519        C524   1.425       .  A
C519        H526   1.082       .  S
C520        C521   1.426       .  A
C521        C522   1.397       .  A
C521       Br528   1.910       .  S
C522        C523   1.394       .  A
C522        H527   1.084       .  S
C523        C524   1.419       .  A
C524       Br525   1.915   1_556  S
C529        C530   1.413       .  A
C529        C534   1.410       .  A
C529        H536   1.084       .  S
C530        C531   1.408       .  A
C531        C532   1.396       .  A
C531       Br538   1.912       .  S
C532        C533   1.411       .  A
C532        H537   1.082       .  S
C533        C534   1.415       .  A
C534       Br535   1.919       .  S
C539        C540   1.408       .  A
C539        C544   1.387       .  A
C539        H546   1.082       .  S
C540        C541   1.410       .  A
C541        C542   1.413       .  A
C541       Br548   1.915       .  S
C542        C543   1.411       .  A
C542        H547   1.083       .  S
C543        C544   1.401       .  A
C544       Br545   1.917       .  S
C549        C550   1.400       .  A
C549        C554   1.406       .  A
C549        H556   1.083       .  S
C550        C551   1.410       .  A
C551        C552   1.396       .  A
C551       Br558   1.915       .  S
C552        C553   1.401       .  A
C552        H557   1.083       .  S
C553        C799   1.491   1_545  S
C553        C554   1.420       .  A
C554       Br555   1.921       .  S
C559        C560   1.396       .  A
C559        C564   1.394       .  A
C559        H566   1.083       .  S
C560        C561   1.404       .  A
C561        C562   1.388       .  A
C561       Br568   1.919       .  S
C562        C563   1.402       .  A
C562        H567   1.083       .  S
C563        C564   1.416       .  A
C564       Br565   1.923       .  S
C569        C570   1.405       .  A
C569        C574   1.399       .  A
C569        H576   1.077       .  S
C570        C571   1.415       .  A
C571        C572   1.395       .  A
C571       Br578   1.917       .  S
C572        C573   1.398       .  A
C572        H577   1.084       .  S
C573        C574   1.406       .  A
C574       Br575   1.919       .  S
C579        C580   1.404       .  A
C579        C584   1.400       .  A
C579        H586   1.084       .  S
C580        C581   1.408       .  A
C581        C582   1.400       .  A
C581       Br588   1.920       .  S
C582        C583   1.409       .  A
C582        H587   1.084       .  S
C583        C584   1.412       .  A
C584       Br585   1.917       .  S
O589       Zr625   2.411       .  S
O589        C600   1.287       .  A
O590       Zr624   2.403       .  S
O590        C601   1.285       .  A
O591       Zr597   2.403       .  S
O591        C602   1.286       .  A
O592       Zr597   2.403       .  S
O592        C603   1.286       .  A
O593       Zr627   2.494       .  S
O593        C603   1.304       .  A
O594       Zr626   2.500       .  S
O594        C602   1.302       .  A
O595       Zr597   2.438       .  S
O595        C601   1.292       .  A
O596       Zr597   2.468       .  S
O596        C600   1.297       .  A
Zr597       O598   2.332       .  S
Zr597       O599   2.329       .  S
Zr597       O607   2.326       .  S
Zr597       O605   2.341       .  S
O598       Zr624   2.349       .  S
O598       Zr627   2.339       .  S
O599       Zr625   2.346       .  S
O599       Zr626   2.341       .  S
C600       C1171   1.484       .  S
C601       C1148   1.452       .  S
C602       C1138   1.475       .  S
C603       C1158   1.477       .  S
H604        O605   0.962       .  S
O605       Zr624   2.315       .  S
O605       Zr626   2.334       .  S
H606        O607   0.963       .  S
O607       Zr625   2.331       .  S
O607       Zr627   2.356       .  S
O608       Zr624   2.387       .  S
O608        C631   1.282       .  A
O609       Zr625   2.407       .  S
O609        C632   1.287       .  A
O610       Zr626   2.375       .  S
O610        C633   1.281       .  A
O611       Zr627   2.425       .  S
O611        C634   1.290       .  A
O612       Zr627   2.410       .  S
O612        C635   1.272       .  A
O613       Zr626   2.403       .  S
O613        C636   1.288       .  A
O614       Zr628   2.372       .  S
O614        C637   1.277       .  A
O615       Zr628   2.418       .  S
O615        C638   1.288       .  A
O616       Zr626   2.498       .  S
O616        C637   1.301       .  A
O617       Zr627   2.481       .  S
O617        C638   1.302       .  A
O618       Zr624   2.576       .  S
O618        C633   1.318       .  A
O619       Zr625   2.423       .  S
O619        C636   1.287       .  A
O620       Zr625   2.481       .  S
O620        C635   1.290       .  A
O621       Zr624   2.487       .  S
O621        C634   1.303       .  A
O622       Zr628   2.464       .  S
O622        C631   1.298       .  A
O623       Zr628   2.480       .  S
O623        C632   1.298       .  A
Zr624       O630   2.322       .  S
Zr624       O642   2.370       .  S
Zr625       O629   2.342       .  S
Zr625       O640   2.356       .  S
Zr626       O630   2.328       .  S
Zr626       O640   2.351       .  S
Zr627       O629   2.337       .  S
Zr627       O642   2.343       .  S
Zr628       O629   2.315       .  S
Zr628       O630   2.350       .  S
Zr628       O642   2.343       .  S
Zr628       O640   2.347       .  S
C631       C1068   1.471       .  S
C632       C1088   1.500       .  S
C633       C1108   1.515       .  S
C634       C1058   1.501       .  S
C635       C1128   1.488       .  S
C636       C1081   1.474       .  S
C637       C1098   1.471       .  S
C638       C1118   1.494       .  S
H639        O640   0.966       .  S
H641        O642   0.966       .  S
C643        C998   1.500       .  S
C643        C644   1.419       .  A
C644       C1048   1.477       .  S
C644       C1233   1.419   1_565  A
C645       C1038   1.501       .  S
C645       C1232   1.419       .  A
C645        C646   1.416       .  A
C646       C1021   1.493       .  S
C646        C647   1.419       .  A
C647       C1011   1.480       .  S
C647       C1824   1.417   1_455  A
C648       C1028   1.500       .  S
C648       C1823   1.417       .  A
C649       C2254   1.452   1_455  S
C649        C650   1.394       .  A
C649        C654   1.389       .  A
C650        C651   1.402       .  A
C650        H655   1.084   1_455  S
C651       C1008   1.478       .  S
C651        C652   1.408       .  A
C652        C653   1.402       .  A
C652        H656   1.084       .  S
C653        C988   1.459       .  S
C653        C654   1.387       .  A
C654        H657   1.086       .  S
C658        C978   1.498       .  S
C658        C663   1.419       .  A
C659        C660   1.402       .  A
C659        H664   1.084       .  S
C660       C1161   1.471       .  S
C660        C661   1.389       .  A
C661        C662   1.397       .  A
C661        H665   1.085       .  S
C662       C1041   1.495       .  S
C663        H666   1.077       .  S
C667       C1168   1.483       .  S
C667        C668   1.405       .  A
C667        C672   1.401       .  A
C668        C669   1.407       .  A
C668        H673   1.083       .  S
C669       C1031   1.505       .  S
C669        C670   1.418       .  A
C670        C671   1.415       .  A
C671        C672   1.401       .  A
C672        H675   1.084       .  S
C676        C958   1.483       .  S
C676       C1853   1.418   1_455  A
C676        C681   1.397       .  A
C677       C1852   1.418       .  A
C677        C678   1.418       .  A
C677        H682   1.083       .  S
C678       C1091   1.488       .  S
C678        C679   1.397       .  A
C679        C680   1.388       .  A
C679        H683   1.085       .  S
C680       C1051   1.454       .  S
C680       C1857   1.392       .  A
C681       C1856   1.392   1_455  A
C681        H684   1.085       .  S
C685       C1131   1.481       .  S
C685        C686   1.412       .  A
C685        C690   1.402       .  A
C686        C687   1.408       .  A
C686        H691   1.084       .  S
C687       C1018   1.479       .  S
C687        C688   1.398       .  A
C688        C689   1.399       .  A
C688        H692   1.085       .  S
C689        C951   1.475       .  S
C689        C690   1.401       .  A
C690        H693   1.084       .  S
C694       C1121   1.507       .  S
C694        C695   1.426       .  A
C694        C699   1.408       .  A
C695        C696   1.427       .  A
C695        H700   1.076       .  S
C696       C1001   1.515       .  S
C696        C697   1.397       .  A
C697        C698   1.384       .  A
C697        H701   1.077       .  S
C698        C938   1.469       .  S
C698        C699   1.393       .  A
C699        H702   1.084       .  S
O703       Zr739   2.384       .  S
O703        C714   1.283       .  A
O704       Zr738   2.410       .  S
O704        C715   1.284       .  A
O705       Zr711   2.376       .  S
O705        C716   1.280       .  A
O706       Zr711   2.384       .  S
O706        C717   1.280       .  A
O707       Zr741   2.510       .  S
O707        C717   1.303       .  A
O708       Zr740   2.513       .  S
O708        C716   1.305       .  A
O709       Zr711   2.443       .  S
O709        C715   1.294       .  A
O710       Zr711   2.460       .  S
O710        C714   1.295       .  A
Zr711       O712   2.332       .  S
Zr711       O713   2.327       .  S
Zr711       O721   2.332       .  S
Zr711       O719   2.341       .  S
O712       Zr738   2.322       .  S
O712       Zr741   2.317       .  S
O713       Zr739   2.321       .  S
O713       Zr740   2.343       .  S
C714        C991   1.480       .  S
C715        C898   1.478       .  S
C716        C961   1.488       .  S
C717        C908   1.485       .  S
H718        O719   0.964       .  S
O719       Zr738   2.366       .  S
O719       Zr740   2.343       .  S
H720        O721   0.965       .  S
O721       Zr739   2.360       .  S
O721       Zr741   2.339       .  S
O722       Zr738   2.442       .  S
O722        C745   1.293       .  A
O723       Zr739   2.397       .  S
O723        C746   1.286       .  A
O724       Zr740   2.434       .  S
O724        C747   1.292       .  A
O725       Zr741   2.379       .  S
O725        C748   1.279       .  A
O726       Zr741   2.407       .  S
O726        C749   1.289       .  A
O727       Zr740   2.385       .  S
O727        C750   1.283       .  A
O728       Zr742   2.398       .  S
O728        C751   1.283       .  A
O729       Zr742   2.403       .  S
O729        C752   1.285       .  A
O730       Zr740   2.518       .  S
O730        C751   1.307       .  A
O731       Zr741   2.477       .  S
O731        C752   1.298       .  A
O732       Zr738   2.416       .  S
O732        C747   1.290       .  A
O733       Zr739   2.537       .  S
O733        C750   1.310       .  A
O734       Zr739   2.470       .  S
O734        C749   1.299       .  A
O735       Zr738   2.525       .  S
O735        C748   1.308       .  A
O736       Zr742   2.458       .  S
O736        C745   1.295       .  A
O737       Zr742   2.455       .  S
O737        C746   1.294       .  A
Zr738       O744   2.364       .  S
Zr738       O756   2.311       .  S
Zr739       O743   2.352       .  S
Zr739       O754   2.315       .  S
Zr740       O744   2.351       .  S
Zr740       O754   2.339       .  S
Zr741       O743   2.339       .  S
Zr741       O756   2.336       .  S
Zr742       O743   2.328       .  S
Zr742       O744   2.333       .  S
Zr742       O756   2.337       .  S
Zr742       O754   2.344       .  S
C745        C921   1.499       .  S
C746        C941   1.473       .  S
C747        C928   1.472       .  S
C748        C878   1.502       .  S
C749        C948   1.473       .  S
C750        C981   1.499       .  S
C751        C968   1.483       .  S
C752        C891   1.466       .  S
H753        O754   0.963       .  S
H755        O756   0.962       .  S
C757       C1111   1.508   1_554  S
C757        C758   1.421       .  A
C757        C762   1.417       .  A
C758        C759   1.411       .  A
C758        H763   1.083       .  S
C759       C2087   1.490       .  S
C759        C760   1.392       .  A
C760        C761   1.403       .  A
C760       H1940   1.085       .  S
C761        C868   1.499       .  S
C761        C762   1.417       .  A
C762        H765   1.082   1_554  S
H764       C1936   1.085   1_455  S
C766        C871   1.486       .  S
C766       C1947   1.410       .  A
C767        C818   1.480       .  S
C767        C768   1.418   1_556  A
C768        C858   1.498       .  S
C768       C1945   1.421   1_554  A
C769       C2027   1.506       .  S
C769       C1944   1.421   1_456  A
C769        C770   1.419   1_565  A
C770        C838   1.470       .  S
C771        C828   1.495       .  S
C771       C1942   1.410   1_455  A
C772        C931   1.469   1_556  S
C772        C773   1.398       .  A
C772        C777   1.397       .  A
C773        C774   1.398       .  A
C773        H778   1.085       .  S
C774        C841   1.460   1_565  S
C775        C776   1.401       .  A
C775        H779   1.084       .  S
C776       C1151   1.472       .  S
C777        H780   1.082       .  S
C781        C901   1.458       .  S
C781       C1958   1.387   1_454  A
C781        C786   1.400       .  A
C782       C1957   1.387   1_556  A
C782        C783   1.390       .  A
C782        H787   1.086       .  S
C783       C1101   1.475       .  S
C783        C784   1.408       .  A
C784        C785   1.418       .  A
C784        H788   1.081       .  S
C785        C848   1.498       .  S
C785       C1962   1.407   1_556  A
C786       C1961   1.407   1_554  A
C786        H789   1.084       .  S
C790        C881   1.494       .  S
C790        C791   1.408       .  A
C790        C795   1.411       .  A
C791        C792   1.410       .  A
C791        H796   1.083       .  S
C792       C1061   1.488       .  S
C792        C793   1.409       .  A
C793        C794   1.404       .  A
C793        H797   1.084       .  S
C794        C831   1.489       .  S
C794        C795   1.402       .  A
C795        H798   1.085       .  S
C799        C800   1.421       .  A
C799        C804   1.401       .  A
C800        C801   1.413       .  A
C800        H805   1.083       .  S
C801        C918   1.486       .  S
C801        C802   1.398       .  A
C802        C803   1.392       .  A
C802        H806   1.085       .  S
C803        C821   1.462       .  S
C803        C804   1.394       .  A
C808       C1071   1.473       .  S
C808        C809   1.392   1_556  A
C808        C813   1.390       .  A
C809        C810   1.397       .  A
C809        H814   1.084       .  S
C810        C888   1.470       .  S
C810        C811   1.413       .  A
C811        C812   1.420       .  A
C811        H815   1.079       .  S
C812        C861   1.513       .  S
C812        C813   1.403   1_554  A
C813        H816   1.071       .  S
C817        C818   1.408       .  A
C817        C822   1.393       .  A
C817        H824   1.084       .  S
C818        C819   1.411   1_556  A
C819        C820   1.391   1_554  A
C819       Br826   1.912   1_565  S
C820        C821   1.400       .  A
C820        H825   1.084   1_556  S
C821        C822   1.400       .  A
C822       Br823   1.917       .  S
C827        C828   1.400   1_554  A
C827        C832   1.401   1_554  A
C827        H834   1.082       .  S
C828        C829   1.412       .  A
C829        C830   1.406       .  A
C829       Br836   1.918       .  S
C830        C831   1.404       .  A
C830        H835   1.083       .  S
C831        C832   1.412       .  A
C832       Br833   1.918   1_556  S
C837        C838   1.401       .  A
C837        C842   1.393       .  A
C837        H844   1.082       .  S
C839        C840   1.390       .  A
C839       Br846   1.917       .  S
C840        H845   1.084       .  S
C841        C842   1.406       .  A
C842       Br843   1.919   1_545  S
C847       C2024   1.410   1_554  A
C847        C852   1.403       .  A
C847        H854   1.083   1_455  S
C848       C2023   1.410   1_556  A
C848        C849   1.412       .  A
C849        C850   1.402       .  A
C849       Br856   1.919       .  S
C850        C851   1.408       .  A
C850        H855   1.082       .  S
C851       C1945   1.506       .  S
C851       C2028   1.409   1_556  A
C852       C2027   1.409   1_554  A
C852       Br853   1.914   1_455  S
C857        C858   1.395   1_556  A
C857        C862   1.389       .  A
C857        H864   1.080       .  S
C858        C859   1.411       .  A
C859        C860   1.405       .  A
C859       Br866   1.915       .  S
C860        C861   1.413       .  A
C860        H865   1.078       .  S
C861        C862   1.423   1_554  A
C862       Br863   1.926       .  S
C867       C2044   1.409       .  A
C867        C872   1.394       .  A
C867        H874   1.083       .  S
C868       C2043   1.409       .  A
C868        C869   1.418   1_554  A
C869        C870   1.408       .  A
C869       Br876   1.918       .  S
C870        C871   1.404       .  A
C870        H875   1.083       .  S
C871       C2048   1.404   1_556  A
C872       C2047   1.404   1_554  A
C872       Br873   1.923   1_655  S
C877        C878   1.412   1_556  A
C877        C882   1.419       .  A
C877        H884   1.083       .  S
C878        C879   1.427       .  A
C879        C880   1.384       .  A
C879       Br886   1.924       .  S
C880        C881   1.391   1_554  A
C880        H885   1.083       .  S
C881        C882   1.415       .  A
C882       Br883   1.916       .  S
C887        C888   1.397       .  A
C887        C892   1.387       .  A
C887        H894   1.085       .  S
C888        C889   1.407       .  A
C889        C890   1.407       .  A
C889       Br896   1.914       .  S
C890        C891   1.406       .  A
C890        H895   1.082       .  S
C891        C892   1.408       .  A
C892       Br893   1.919       .  S
C897        C898   1.408       .  A
C897        C902   1.397       .  A
C897        H904   1.083       .  S
C898        C899   1.421       .  A
C899        C900   1.387       .  A
C899       Br906   1.924   1_554  S
C900        C901   1.392       .  A
C900        H905   1.085   1_554  S
C901        C902   1.403       .  A
C902       Br903   1.918   1_455  S
C907        C908   1.406       .  A
C907        C912   1.404       .  A
C907        H914   1.084       .  S
C908        C909   1.412       .  A
C909        C910   1.407       .  A
C909       Br916   1.918       .  S
C910        C911   1.405       .  A
C910        H915   1.083   1_455  S
C911       C1935   1.490   1_455  S
C911        C912   1.410       .  A
C912       Br913   1.918       .  S
C917        C918   1.402   1_554  A
C917        C922   1.396       .  A
C917        H924   1.084       .  S
C918        C919   1.406       .  A
C919        C920   1.409       .  A
C919       Br926   1.916       .  S
C920        C921   1.414   1_556  A
C920        H925   1.083       .  S
C921        C922   1.418       .  A
C922       Br923   1.923       .  S
C927        C928   1.407       .  A
C927        C932   1.391   1_554  A
C927        H934   1.083       .  S
C928        C929   1.412       .  A
C929        C930   1.392       .  A
C929       Br936   1.923       .  S
C930        C931   1.403       .  A
C930        H935   1.084       .  S
C931        C932   1.406   1_554  A
C932       Br933   1.922       .  S
C937        C938   1.403       .  A
C937        C942   1.397       .  A
C937        H944   1.084       .  S
C938        C939   1.405       .  A
C939        C940   1.391       .  A
C939       Br946   1.921       .  S
C940        C941   1.406       .  A
C940        H945   1.084       .  S
C941        C942   1.412       .  A
C942       Br943   1.918       .  S
C947        C948   1.403       .  A
C947        C952   1.401       .  A
C947        H954   1.084       .  S
C948        C949   1.414       .  A
C949        C950   1.394       .  A
C949       Br956   1.921       .  S
C950        C951   1.397       .  A
C950        H955   1.084       .  S
C951        C952   1.411       .  A
C952       Br953   1.919       .  S
C957        C958   1.394       .  A
C957        C962   1.399       .  A
C957        H964   1.084       .  S
C958        C959   1.411       .  A
C959        C960   1.407       .  A
C959       Br966   1.909       .  S
C960        C961   1.404       .  A
C960        H965   1.084       .  S
C961        C962   1.421       .  A
C962       Br963   1.917       .  S
C967        C968   1.407       .  A
C967        C972   1.397       .  A
C967        H974   1.084       .  S
C968        C969   1.407       .  A
C969        C970   1.413       .  A
C969       Br976   1.914       .  S
C970        C971   1.412       .  A
C971        C972   1.405       .  A
C972       Br973   1.919       .  S
C977        C978   1.397       .  A
C977        C982   1.394       .  A
C977        H984   1.084       .  S
C978        C979   1.415       .  A
C979        C980   1.419       .  A
C979       Br986   1.915       .  S
C980        C981   1.411       .  A
C980        H985   1.083       .  S
C981        C982   1.417       .  A
C982       Br983   1.909       .  S
C987        C988   1.403       .  A
C987        C992   1.396       .  A
C987        H994   1.084       .  S
C988        C989   1.395       .  A
C989        C990   1.389       .  A
C989       Br996   1.918       .  S
C990        C991   1.415       .  A
C990        H995   1.083       .  S
C991        C992   1.412       .  A
C992       Br993   1.921       .  S
C997        C998   1.393       .  A
C997       C1002   1.390       .  A
C997       H1004   1.077       .  S
C998        C999   1.412       .  A
C999       C1000   1.406       .  A
C999      Br1006   1.912       .  S
C1000      C1001   1.411       .  A
C1000      H1005   1.079       .  S
C1001      C1002   1.428       .  A
C1002     Br1003   1.932       .  S
C1007      C1008   1.404       .  A
C1007      C1012   1.394       .  A
C1007      H2190   1.083       .  S
C1008      C1009   1.410       .  A
C1009      C1010   1.395       .  A
C1009     Br1016   1.922       .  S
C1010      C1011   1.403       .  A
C1010      H1015   1.084       .  S
C1011      C1012   1.406       .  A
C1012     Br2189   1.909       .  S
Br1013     C2188   1.909       .  S
H1014      C2183   1.083       .  S
C1017      C1018   1.402       .  A
C1017      C1022   1.400       .  A
C1017      H1024   1.084       .  S
C1018      C1019   1.408       .  A
C1019      C1020   1.399       .  A
C1019     Br1026   1.914       .  S
C1020      C1021   1.403       .  A
C1020      H1025   1.083       .  S
C1021      C1022   1.410       .  A
C1022     Br1023   1.915       .  S
C1027      C1028   1.402       .  A
C1027      C1032   1.407       .  A
C1027      H1034   1.083       .  S
C1028      C1029   1.413       .  A
C1029      C1030   1.403       .  A
C1029     Br1036   1.920       .  S
C1030      C1031   1.406       .  A
C1030      H1035   1.083       .  S
C1031      C1032   1.422       .  A
C1032     Br1033   1.921       .  S
C1037      C1038   1.398       .  A
C1037      C1042   1.392       .  A
C1037      H1044   1.084       .  S
C1039      C1040   1.409       .  A
C1039     Br1046   1.915       .  S
C1040      H1045   1.083       .  S
C1041      C1042   1.417       .  A
C1042     Br1043   1.927       .  S
C1047      C1048   1.407       .  A
C1047      C1052   1.391       .  A
C1047      H1054   1.084       .  S
C1048      C1049   1.412       .  A
C1049      C1050   1.387       .  A
C1049     Br1056   1.916       .  S
C1050      C1051   1.398       .  A
C1050      H1055   1.084       .  S
C1051      C1052   1.398       .  A
C1052     Br1053   1.916       .  S
C1057      C1058   1.410       .  A
C1057      C1062   1.407       .  A
C1057      H1064   1.083       .  S
C1058      C1059   1.425       .  A
C1059      C1060   1.401       .  A
C1059     Br1066   1.926       .  S
C1060      C1061   1.398       .  A
C1060      H1065   1.084       .  S
C1061      C1062   1.410       .  A
C1062     Br1063   1.919       .  S
C1067      C1068   1.403       .  A
C1067      C1072   1.395       .  A
C1067      H1074   1.084       .  S
C1068      C1069   1.417       .  A
C1069      C1070   1.391       .  A
C1069     Br1076   1.927       .  S
C1070      C1071   1.399       .  A
C1070      H1075   1.084   1_556  S
C1071      C1072   1.411       .  A
C1072     Br1073   1.921       .  S
C1077      C1078   1.396       .  A
C1077      C1082   1.387       .  A
C1077      H1084   1.085       .  S
C1078      C1825   1.452       .  S
C1078      C1079   1.397       .  A
C1079      C1080   1.390       .  A
C1079     Br2262   1.919       .  S
C1080      C1081   1.412       .  A
C1080      H1085   1.083       .  S
C1081      C1082   1.419       .  A
C1082     Br1083   1.927       .  S
Br1086     C2255   1.919   1_455  S
C1087      C1088   1.417       .  A
C1087      C1092   1.401       .  A
C1087      H1094   1.083       .  S
C1088      C1089   1.416       .  A
C1089      C1090   1.401       .  A
C1089     Br1096   1.922       .  S
C1090      C1091   1.409       .  A
C1090      H1095   1.084       .  S
C1091      C1092   1.403       .  A
C1092     Br1093   1.919       .  S
C1097      C1098   1.405       .  A
C1097      C1102   1.396       .  A
C1097      H1104   1.084       .  S
C1098      C1099   1.409       .  A
C1099      C1100   1.402       .  A
C1099     Br1106   1.916       .  S
C1100      C1101   1.403       .  A
C1100      H1105   1.083       .  S
C1101      C1102   1.408       .  A
C1102     Br1103   1.920       .  S
C1107      C1108   1.413       .  A
C1107      C1112   1.425       .  A
C1107      H1114   1.082       .  S
C1108      C1109   1.426       .  A
C1109      C1110   1.397       .  A
C1109     Br1116   1.910       .  S
C1110      C1111   1.394       .  A
C1110      H1115   1.084       .  S
C1111      C1112   1.419       .  A
C1112     Br1113   1.915   1_556  S
C1117      C1118   1.413       .  A
C1117      C1122   1.410       .  A
C1117      H1124   1.084       .  S
C1118      C1119   1.408       .  A
C1119      C1120   1.396       .  A
C1119     Br1126   1.912       .  S
C1120      C1121   1.411       .  A
C1120      H1125   1.082       .  S
C1121      C1122   1.415       .  A
C1122     Br1123   1.919       .  S
C1127      C1128   1.408       .  A
C1127      C1132   1.387       .  A
C1127      H1134   1.082       .  S
C1128      C1129   1.410       .  A
C1129      C1130   1.413       .  A
C1129     Br1136   1.915       .  S
C1130      C1131   1.411       .  A
C1130      H1135   1.083       .  S
C1131      C1132   1.401       .  A
C1132     Br1133   1.917       .  S
C1137      C1138   1.400       .  A
C1137      C1142   1.406       .  A
C1137      H1144   1.083       .  S
C1138      C1139   1.410       .  A
C1139      C1140   1.396       .  A
C1139     Br1146   1.915       .  S
C1140      C1141   1.401       .  A
C1140      H1145   1.083       .  S
C1141      C1142   1.420       .  A
C1142     Br1143   1.921       .  S
C1147      C1148   1.396       .  A
C1147      C1152   1.394       .  A
C1147      H1154   1.083       .  S
C1148      C1149   1.404       .  A
C1149      C1150   1.388       .  A
C1149     Br1156   1.919       .  S
C1150      C1151   1.402       .  A
C1150      H1155   1.083       .  S
C1151      C1152   1.416       .  A
C1152     Br1153   1.923       .  S
C1157      C1158   1.405       .  A
C1157      C1162   1.399       .  A
C1157      H1164   1.077       .  S
C1158      C1159   1.415       .  A
C1159      C1160   1.395       .  A
C1159     Br1166   1.917       .  S
C1160      C1161   1.398       .  A
C1160      H1165   1.084       .  S
C1161      C1162   1.406       .  A
C1162     Br1163   1.919       .  S
C1167      C1168   1.404       .  A
C1167      C1172   1.400       .  A
C1167      H1174   1.084       .  S
C1168      C1169   1.408       .  A
C1169      C1170   1.400       .  A
C1169     Br1176   1.920       .  S
C1170      C1171   1.409       .  A
C1170      H1175   1.084       .  S
C1171      C1172   1.412       .  A
C1172     Br1173   1.917       .  S
O1177     Zr1213   2.411       .  S
O1177      C1188   1.287       .  A
O1178     Zr1212   2.403       .  S
O1178      C1189   1.285       .  A
O1179     Zr1185   2.403       .  S
O1179      C1190   1.286       .  A
O1180     Zr1185   2.403       .  S
O1180      C1191   1.286       .  A
O1181     Zr1215   2.494       .  S
O1181      C1191   1.304       .  A
O1182     Zr1214   2.500       .  S
O1182      C1190   1.302       .  A
O1183     Zr1185   2.438       .  S
O1183      C1189   1.292       .  A
O1184     Zr1185   2.468       .  S
O1184      C1188   1.297       .  A
Zr1185     O1186   2.332       .  S
Zr1185     O1187   2.329       .  S
Zr1185     O1195   2.326       .  S
Zr1185     O1193   2.341       .  S
O1186     Zr1212   2.349       .  S
O1186     Zr1215   2.339       .  S
O1187     Zr1213   2.346       .  S
O1187     Zr1214   2.341       .  S
C1188      C1759   1.484       .  S
C1189      C1736   1.452       .  S
C1190      C1726   1.475       .  S
C1191      C1746   1.477       .  S
H1192      O1193   0.962       .  S
O1193     Zr1212   2.315       .  S
O1193     Zr1214   2.334       .  S
H1194      O1195   0.963       .  S
O1195     Zr1213   2.331       .  S
O1195     Zr1215   2.356       .  S
O1196     Zr1212   2.387       .  S
O1196      C1219   1.282       .  A
O1197     Zr1213   2.407       .  S
O1197      C1220   1.287       .  A
O1198     Zr1214   2.375       .  S
O1198      C1221   1.281       .  A
O1199     Zr1215   2.425       .  S
O1199      C1222   1.290       .  A
O1200     Zr1215   2.410       .  S
O1200      C1223   1.272       .  A
O1201     Zr1214   2.403       .  S
O1201      C1224   1.288       .  A
O1202     Zr1216   2.372       .  S
O1202      C1225   1.277       .  A
O1203     Zr1216   2.418       .  S
O1203      C1226   1.288       .  A
O1204     Zr1214   2.498       .  S
O1204      C1225   1.301       .  A
O1205     Zr1215   2.481       .  S
O1205      C1226   1.302       .  A
O1206     Zr1212   2.576       .  S
O1206      C1221   1.318       .  A
O1207     Zr1213   2.423       .  S
O1207      C1224   1.287       .  A
O1208     Zr1213   2.481       .  S
O1208      C1223   1.290       .  A
O1209     Zr1212   2.487       .  S
O1209      C1222   1.303       .  A
O1210     Zr1216   2.464       .  S
O1210      C1219   1.298       .  A
O1211     Zr1216   2.480       .  S
O1211      C1220   1.298       .  A
Zr1212     O1218   2.322       .  S
Zr1212     O1230   2.370       .  S
Zr1213     O1217   2.342       .  S
Zr1213     O1228   2.356       .  S
Zr1214     O1218   2.328       .  S
Zr1214     O1228   2.351       .  S
Zr1215     O1217   2.337       .  S
Zr1215     O1230   2.343       .  S
Zr1216     O1217   2.315       .  S
Zr1216     O1218   2.350       .  S
Zr1216     O1230   2.343       .  S
Zr1216     O1228   2.347       .  S
C1219      C1656   1.471       .  S
C1220      C1676   1.500       .  S
C1221      C1696   1.515       .  S
C1222      C1646   1.501       .  S
C1223      C1716   1.488       .  S
C1224      C1669   1.474       .  S
C1225      C1686   1.471       .  S
C1226      C1706   1.494       .  S
H1227      O1228   0.966       .  S
H1229      O1230   0.966       .  S
C1231      C1586   1.500       .  S
C1231      C1232   1.419   1_655  A
C1231      C1824   1.417       .  A
C1232      C1636   1.477   1_455  S
C1233      C1626   1.501   1_545  S
C1233      C1234   1.416       .  A
C1234      C1609   1.493       .  S
C1234      C1235   1.419       .  A
C1235      C1599   1.480       .  S
C1236      C1616   1.500       .  S
C1236      C1819   1.417   1_545  A
C1237      C1238   1.394       .  A
C1237      C1242   1.389       .  A
C1238      C1239   1.402       .  A
C1238      H1243   1.084       .  S
C1239      C1596   1.478       .  S
C1239      C1240   1.408       .  A
C1240      C1241   1.402       .  A
C1240      H1244   1.084       .  S
C1241      C1576   1.459       .  S
C1241      C1242   1.387       .  A
C1242      H1245   1.086       .  S
C1246      C1566   1.498       .  S
C1246      C1835   1.409       .  A
C1246      C1251   1.419       .  A
C1247      C1834   1.409       .  A
C1247      C1248   1.402   1_565  A
C1247      H1252   1.084       .  S
C1248      C1749   1.471       .  S
C1248      C1249   1.389       .  A
C1249      C1250   1.397   1_545  A
C1249      H1253   1.085       .  S
C1250      C1629   1.495       .  S
C1250      C1839   1.417       .  A
C1251      C1838   1.417       .  A
C1251      H1254   1.077       .  S
C1255      C1756   1.483       .  S
C1255      C1256   1.405       .  A
C1255      C1260   1.401       .  A
C1256      C1257   1.407       .  A
C1256      H1261   1.083       .  S
C1257      C1619   1.505       .  S
C1257      C1258   1.418   1_545  A
C1258      C1259   1.415   1_565  A
C1258      H1850   1.083       .  S
C1259      C2147   1.489   1_545  S
C1259      C1260   1.401       .  A
C1260      H1263   1.084       .  S
H1262      C1846   1.083       .  S
C1264      C1546   1.483       .  S
C1264      C1269   1.397       .  A
C1265      C1266   1.418       .  A
C1265      H1270   1.083       .  S
C1266      C1679   1.488       .  S
C1266      C1267   1.397       .  A
C1267      C1268   1.388       .  A
C1267      H1271   1.085       .  S
C1268      C1639   1.454       .  S
C1269      H1272   1.085       .  S
C1273      C1719   1.481       .  S
C1273      C1274   1.412       .  A
C1273      C1278   1.402       .  A
C1274      C1275   1.408       .  A
C1274      H1279   1.084       .  S
C1275      C1606   1.479       .  S
C1275      C1276   1.398       .  A
C1276      C1277   1.399       .  A
C1276      H1280   1.085       .  S
C1277      C1539   1.475       .  S
C1277      C1278   1.401       .  A
C1278      H1281   1.084       .  S
C1282      C1709   1.507       .  S
C1282      C1283   1.426       .  A
C1282      C1287   1.408       .  A
C1283      C1284   1.427       .  A
C1283      H1288   1.076       .  S
C1284      C1589   1.515       .  S
C1284      C1285   1.397       .  A
C1285      C1286   1.384       .  A
C1285      H1289   1.077       .  S
C1286      C1526   1.469       .  S
C1286      C1287   1.393       .  A
C1287      H1290   1.084       .  S
O1291     Zr1327   2.384       .  S
O1291      C1302   1.283       .  A
O1292     Zr1326   2.410       .  S
O1292      C1303   1.284       .  A
O1293     Zr1299   2.376       .  S
O1293      C1304   1.280       .  A
O1294     Zr1299   2.384       .  S
O1294      C1305   1.280       .  A
O1295     Zr1329   2.510       .  S
O1295      C1305   1.303       .  A
O1296     Zr1328   2.513       .  S
O1296      C1304   1.305       .  A
O1297     Zr1299   2.443       .  S
O1297      C1303   1.294       .  A
O1298     Zr1299   2.460       .  S
O1298      C1302   1.295       .  A
Zr1299     O1300   2.332       .  S
Zr1299     O1301   2.327       .  S
Zr1299     O1309   2.332       .  S
Zr1299     O1307   2.341       .  S
O1300     Zr1326   2.322       .  S
O1300     Zr1329   2.317       .  S
O1301     Zr1327   2.321       .  S
O1301     Zr1328   2.343       .  S
C1302      C1579   1.480       .  S
C1303      C1486   1.478       .  S
C1304      C1549   1.488       .  S
C1305      C1496   1.485       .  S
H1306      O1307   0.964       .  S
O1307     Zr1326   2.366       .  S
O1307     Zr1328   2.343       .  S
H1308      O1309   0.965       .  S
O1309     Zr1327   2.360       .  S
O1309     Zr1329   2.339       .  S
O1310     Zr1326   2.442       .  S
O1310      C1333   1.293       .  A
O1311     Zr1327   2.397       .  S
O1311      C1334   1.286       .  A
O1312     Zr1328   2.434       .  S
O1312      C1335   1.292       .  A
O1313     Zr1329   2.379       .  S
O1313      C1336   1.279       .  A
O1314     Zr1329   2.407       .  S
O1314      C1337   1.289       .  A
O1315     Zr1328   2.385       .  S
O1315      C1338   1.283       .  A
O1316     Zr1330   2.398       .  S
O1316      C1339   1.283       .  A
O1317     Zr1330   2.403       .  S
O1317      C1340   1.285       .  A
O1318     Zr1328   2.518       .  S
O1318      C1339   1.307       .  A
O1319     Zr1329   2.477       .  S
O1319      C1340   1.298       .  A
O1320     Zr1326   2.416       .  S
O1320      C1335   1.290       .  A
O1321     Zr1327   2.537       .  S
O1321      C1338   1.310       .  A
O1322     Zr1327   2.470       .  S
O1322      C1337   1.299       .  A
O1323     Zr1326   2.525       .  S
O1323      C1336   1.308       .  A
O1324     Zr1330   2.458       .  S
O1324      C1333   1.295       .  A
O1325     Zr1330   2.455       .  S
O1325      C1334   1.294       .  A
Zr1326     O1332   2.364       .  S
Zr1326     O1344   2.311       .  S
Zr1327     O1331   2.352       .  S
Zr1327     O1342   2.315       .  S
Zr1328     O1332   2.351       .  S
Zr1328     O1342   2.339       .  S
Zr1329     O1331   2.339       .  S
Zr1329     O1344   2.336       .  S
Zr1330     O1331   2.328       .  S
Zr1330     O1332   2.333       .  S
Zr1330     O1344   2.337       .  S
Zr1330     O1342   2.344       .  S
C1333      C1509   1.499       .  S
C1334      C1529   1.473       .  S
C1335      C1516   1.472       .  S
C1336      C1466   1.502       .  S
C1337      C1536   1.473       .  S
C1338      C1569   1.499       .  S
C1339      C1556   1.483       .  S
C1340      C1479   1.466       .  S
H1341      O1342   0.963       .  S
H1343      O1344   0.962       .  S
C1345      C1699   1.508   1_554  S
C1345      C1346   1.421       .  A
C1345      C1350   1.417       .  A
C1346      C1347   1.411       .  A
C1346      H1351   1.083       .  S
C1347      C1348   1.392       .  A
C1348      C1349   1.403       .  A
C1349      C1456   1.499       .  S
C1349      C1350   1.417       .  A
C1350      H1353   1.082   1_554  S
C1354      C1459   1.486       .  S
C1354      C1943   1.414   1_545  A
C1355      C1406   1.480       .  S
C1355      C1942   1.414       .  A
C1355      C1356   1.418   1_556  A
C1356      C1446   1.498       .  S
C1357      C1358   1.419       .  A
C1358      C1426   1.470       .  S
C1358      C1947   1.413       .  A
C1359      C1416   1.495       .  S
C1359      C1946   1.413       .  A
C1360      C1519   1.469   1_556  S
C1360      C1361   1.398       .  A
C1360      C1365   1.397       .  A
C1361      C1362   1.398       .  A
C1361      H1366   1.085       .  S
C1362      C1429   1.460       .  S
C1362      C1951   1.396       .  A
C1363      C1950   1.396   1_545  A
C1363      C1364   1.401       .  A
C1363      H1367   1.084       .  S
C1364      C1739   1.472       .  S
C1364      C1953   1.397   1_545  A
C1365      C1952   1.397       .  A
C1365      H1368   1.082       .  S
C1369      C1489   1.458       .  S
C1369      C1374   1.400       .  A
C1370      C1371   1.390       .  A
C1370      H1375   1.086       .  S
C1371      C1689   1.475       .  S
C1371      C1372   1.408       .  A
C1372      C1373   1.418   1_655  A
C1372      H1376   1.081       .  S
C1373      C1436   1.498       .  S
C1374      H1377   1.084       .  S
C1378      C1469   1.494       .  S
C1378      C1379   1.408       .  A
C1378      C1383   1.411       .  A
C1379      C1380   1.410       .  A
C1379      H1384   1.083       .  S
C1380      C1649   1.488       .  S
C1380      C1381   1.409       .  A
C1381      C1382   1.404       .  A
C1381      H1385   1.084       .  S
C1382      C1419   1.489       .  S
C1382      C1383   1.402       .  A
C1383      H1386   1.085       .  S
C1387      C2317   1.491       .  S
C1387      C1388   1.421       .  A
C1387      C1392   1.401       .  A
C1388      C1389   1.413       .  A
C1388      H1393   1.083       .  S
C1389      C1506   1.486       .  S
C1389      C1390   1.398       .  A
C1390      C1391   1.392       .  A
C1390      H1394   1.085       .  S
C1391      C1409   1.462       .  S
C1391      C1392   1.394       .  A
C1392      H1983   1.084       .  S
H1395      C1980   1.084   1_545  S
C1396      C1659   1.473       .  S
C1396      C1397   1.392   1_556  A
C1396      C1401   1.390       .  A
C1397      C1398   1.397       .  A
C1397      H1402   1.084       .  S
C1398      C1476   1.470       .  S
C1398      C1399   1.413       .  A
C1399      C1400   1.420       .  A
C1399      H1403   1.079       .  S
C1400      C1449   1.513       .  S
C1400      C1401   1.403   1_554  A
C1401      H1404   1.071       .  S
C1405      C1406   1.408       .  A
C1405      C1410   1.393       .  A
C1405      H1412   1.084       .  S
C1406      C1407   1.411   1_556  A
C1407      C1408   1.391   1_554  A
C1407     Br1414   1.912       .  S
C1408      C1409   1.400       .  A
C1408      H1413   1.084   1_556  S
C1409      C1410   1.400       .  A
C1410     Br1411   1.917       .  S
C1415      C1416   1.400   1_554  A
C1415      C1420   1.401   1_554  A
C1415      H1422   1.082       .  S
C1416      C1417   1.412       .  A
C1417      C1418   1.406       .  A
C1417     Br1424   1.918       .  S
C1418      C1419   1.404       .  A
C1418      H1423   1.083       .  S
C1419      C1420   1.412       .  A
C1420     Br1421   1.918   1_556  S
C1425      C1426   1.401       .  A
C1425      C1430   1.393       .  A
C1425      H1432   1.082       .  S
C1426      C2015   1.404   1_556  A
C1427      C2014   1.404   1_554  A
C1427      C1428   1.390       .  A
C1427     Br1434   1.917       .  S
C1428      C2017   1.400   1_554  A
C1428      H1433   1.084       .  S
C1429      C2016   1.400   1_556  A
C1429      C1430   1.406       .  A
C1430     Br1431   1.919       .  S
C1435      C1440   1.403       .  A
C1435      H1442   1.083       .  S
C1436      C1437   1.412       .  A
C1437      C1438   1.402       .  A
C1437     Br1444   1.919       .  S
C1438      C1439   1.408       .  A
C1438      H1443   1.082       .  S
C1440     Br1441   1.914       .  S
C1445      C1446   1.395   1_556  A
C1445      C1450   1.389       .  A
C1445      H1452   1.080       .  S
C1446      C1447   1.411       .  A
C1447      C1448   1.405       .  A
C1447     Br1454   1.915       .  S
C1448      C1449   1.413       .  A
C1448      H1453   1.078       .  S
C1449      C1450   1.423   1_554  A
C1450     Br1451   1.926       .  S
C1455      C1460   1.394       .  A
C1455      H1462   1.083       .  S
C1456      C1457   1.418   1_554  A
C1457      C1458   1.408       .  A
C1457     Br1464   1.918       .  S
C1458      C1459   1.404       .  A
C1458      H1463   1.083       .  S
C1460     Br1461   1.923       .  S
C1465      C1466   1.412   1_556  A
C1465      C1470   1.419       .  A
C1465      H1472   1.083       .  S
C1466      C1467   1.427       .  A
C1467      C1468   1.384       .  A
C1467     Br1474   1.924       .  S
C1468      C1469   1.391   1_554  A
C1468      H1473   1.083       .  S
C1469      C1470   1.415       .  A
C1470     Br1471   1.916       .  S
C1475      C1476   1.397       .  A
C1475      C1480   1.387       .  A
C1475      H1482   1.085       .  S
C1476      C1477   1.407       .  A
C1477      C1478   1.407       .  A
C1477     Br1484   1.914       .  S
C1478      C1479   1.406       .  A
C1478      H1483   1.082       .  S
C1479      C1480   1.408       .  A
C1480     Br1481   1.919       .  S
C1485      C1486   1.408       .  A
C1485      C1490   1.397       .  A
C1485      H1492   1.083       .  S
C1486      C1487   1.421       .  A
C1487      C1488   1.387       .  A
C1487     Br1494   1.924   1_554  S
C1488      C1489   1.392       .  A
C1488      H1493   1.085   1_554  S
C1489      C1490   1.403       .  A
C1490     Br1491   1.918       .  S
C1495      C1496   1.406       .  A
C1495      C1500   1.404       .  A
C1495      H1502   1.084       .  S
C1496      C1497   1.412       .  A
C1497      C1498   1.407       .  A
C1497     Br1504   1.918       .  S
C1498      C1499   1.405       .  A
C1498      H1503   1.083       .  S
C1499      C1500   1.410       .  A
C1500     Br1501   1.918       .  S
C1505      C1506   1.402   1_554  A
C1505      C1510   1.396       .  A
C1505      H1512   1.084       .  S
C1506      C1507   1.406       .  A
C1507      C1508   1.409       .  A
C1507     Br1514   1.916       .  S
C1508      C1509   1.414   1_556  A
C1508      H1513   1.083       .  S
C1509      C1510   1.418       .  A
C1510     Br1511   1.923       .  S
C1515      C1516   1.407       .  A
C1515      C1520   1.391   1_554  A
C1515      H1522   1.083       .  S
C1516      C1517   1.412       .  A
C1517      C1518   1.392       .  A
C1517     Br1524   1.923       .  S
C1518      C1519   1.403       .  A
C1518      H1523   1.084       .  S
C1519      C1520   1.406   1_554  A
C1520     Br1521   1.922       .  S
C1525      C1526   1.403       .  A
C1525      C1530   1.397       .  A
C1525      H1532   1.084       .  S
C1526      C1527   1.405       .  A
C1527      C1528   1.391       .  A
C1527     Br1534   1.921       .  S
C1528      C1529   1.406       .  A
C1528      H1533   1.084       .  S
C1529      C1530   1.412       .  A
C1530     Br1531   1.918       .  S
C1535      C1536   1.403       .  A
C1535      C1540   1.401       .  A
C1535      H1542   1.084       .  S
C1536      C1537   1.414       .  A
C1537      C1538   1.394       .  A
C1537     Br1544   1.921       .  S
C1538      C1539   1.397       .  A
C1538      H1543   1.084       .  S
C1539      C1540   1.411       .  A
C1540     Br1541   1.919       .  S
C1545      C1546   1.394       .  A
C1545      C1550   1.399       .  A
C1545      H1552   1.084       .  S
C1546      C1547   1.411       .  A
C1547      C1548   1.407       .  A
C1547     Br1554   1.909       .  S
C1548      C1549   1.404       .  A
C1548      H1553   1.084       .  S
C1549      C1550   1.421       .  A
C1550     Br1551   1.917       .  S
C1555      C1556   1.407       .  A
C1555      C1560   1.397       .  A
C1555      H1562   1.084       .  S
C1556      C1557   1.407       .  A
C1557      C1558   1.413       .  A
C1557     Br1564   1.914       .  S
C1558      C1559   1.412       .  A
C1558      H2151   1.083       .  S
C1559      C1847   1.489       .  S
C1559      C1560   1.405       .  A
C1560     Br1561   1.919       .  S
H1563      C2146   1.083   1_545  S
C1565      C1566   1.397       .  A
C1565      C1570   1.394       .  A
C1565      H1572   1.084       .  S
C1566      C1567   1.415       .  A
C1567      C1568   1.419       .  A
C1567     Br1574   1.915       .  S
C1568      C1569   1.411       .  A
C1568      H1573   1.083       .  S
C1569      C1570   1.417       .  A
C1570     Br1571   1.909       .  S
C1575      C1576   1.403       .  A
C1575      C1580   1.396       .  A
C1575      H1582   1.084       .  S
C1576      C1577   1.395       .  A
C1577      C1578   1.389       .  A
C1577     Br1584   1.918       .  S
C1578      C1579   1.415       .  A
C1578      H1583   1.083       .  S
C1579      C1580   1.412       .  A
C1580     Br1581   1.921       .  S
C1585      C1586   1.393       .  A
C1585      C1590   1.390       .  A
C1585      H1592   1.077       .  S
C1586      C1587   1.412       .  A
C1587      C1588   1.406       .  A
C1587     Br1594   1.912       .  S
C1588      C1589   1.411       .  A
C1588      H1593   1.079       .  S
C1589      C1590   1.428       .  A
C1590     Br1591   1.932       .  S
C1595      C1596   1.404       .  A
C1595      C1600   1.394       .  A
C1596      C1597   1.410       .  A
C1597      C1598   1.395       .  A
C1597     Br1604   1.922       .  S
C1598      C1599   1.403       .  A
C1598      H1603   1.084       .  S
C1599      C1600   1.406       .  A
C1605      C1606   1.402       .  A
C1605      C1610   1.400       .  A
C1605      H1612   1.084       .  S
C1606      C1607   1.408       .  A
C1607      C1608   1.399       .  A
C1607     Br1614   1.914       .  S
C1608      C1609   1.403       .  A
C1608      H1613   1.083       .  S
C1609      C1610   1.410       .  A
C1610     Br1611   1.915       .  S
C1615      C1616   1.402       .  A
C1615      C1620   1.407       .  A
C1615      H1622   1.083       .  S
C1616      C1617   1.413       .  A
C1617      C1618   1.403       .  A
C1617     Br1624   1.920       .  S
C1618      C1619   1.406       .  A
C1618      H1623   1.083       .  S
C1619      C1620   1.422       .  A
C1620     Br1621   1.921       .  S
C1625      C1626   1.398   1_545  A
C1625      C1630   1.392   1_545  A
C1625      H1632   1.084       .  S
C1626      C2215   1.417       .  A
C1627      C2214   1.417       .  A
C1627      C1628   1.409       .  A
C1627     Br1634   1.915       .  S
C1628      C2217   1.406       .  A
C1628      H1633   1.083       .  S
C1629      C2216   1.406       .  A
C1629      C1630   1.417       .  A
C1630     Br1631   1.927   1_565  S
C1635      C1636   1.407       .  A
C1635      C1640   1.391       .  A
C1635      H1642   1.084       .  S
C1636      C1637   1.412   1_655  A
C1637      C1638   1.387   1_455  A
C1637     Br1644   1.916       .  S
C1638      C1639   1.398       .  A
C1638      H1643   1.084   1_655  S
C1639      C1640   1.398       .  A
C1640     Br1641   1.916       .  S
C1645      C1646   1.410       .  A
C1645      C1650   1.407       .  A
C1645      H1652   1.083       .  S
C1646      C1647   1.425       .  A
C1647      C1648   1.401       .  A
C1647     Br1654   1.926       .  S
C1648      C1649   1.398       .  A
C1648      H1653   1.084       .  S
C1649      C1650   1.410       .  A
C1650     Br1651   1.919       .  S
C1655      C1656   1.403       .  A
C1655      C1660   1.395       .  A
C1655      H1662   1.084       .  S
C1656      C1657   1.417       .  A
C1657      C1658   1.391       .  A
C1657     Br1664   1.927       .  S
C1658      C1659   1.399       .  A
C1658      H1663   1.084   1_556  S
C1659      C1660   1.411       .  A
C1660     Br1661   1.921       .  S
C1665      C1666   1.396       .  A
C1665      C1670   1.387       .  A
C1665      H1672   1.085       .  S
C1666      C1667   1.397       .  A
C1667      C1668   1.390       .  A
C1668      C1669   1.412       .  A
C1668      H1673   1.083       .  S
C1669      C1670   1.419       .  A
C1670     Br1671   1.927       .  S
C1675      C1676   1.417       .  A
C1675      C1680   1.401       .  A
C1675      H1682   1.083       .  S
C1676      C1677   1.416       .  A
C1677      C1678   1.401       .  A
C1677     Br1684   1.922       .  S
C1678      C1679   1.409       .  A
C1678      H1683   1.084       .  S
C1679      C1680   1.403       .  A
C1680     Br1681   1.919       .  S
C1685      C1686   1.405       .  A
C1685      C1690   1.396       .  A
C1685      H1692   1.084       .  S
C1686      C1687   1.409       .  A
C1687      C1688   1.402       .  A
C1687     Br1694   1.916       .  S
C1688      C1689   1.403       .  A
C1688      H1693   1.083       .  S
C1689      C1690   1.408       .  A
C1690     Br1691   1.920       .  S
C1695      C1696   1.413       .  A
C1695      C1700   1.425       .  A
C1695      H1702   1.082       .  S
C1696      C1697   1.426       .  A
C1697      C1698   1.397       .  A
C1697     Br1704   1.910       .  S
C1698      C1699   1.394       .  A
C1698      H1703   1.084       .  S
C1699      C1700   1.419       .  A
C1700     Br1701   1.915   1_556  S
C1705      C1706   1.413       .  A
C1705      C1710   1.410       .  A
C1705      H1712   1.084       .  S
C1706      C1707   1.408       .  A
C1707      C1708   1.396       .  A
C1707     Br1714   1.912       .  S
C1708      C1709   1.411       .  A
C1708      H1713   1.082       .  S
C1709      C1710   1.415       .  A
C1710     Br1711   1.919       .  S
C1715      C1716   1.408       .  A
C1715      C1720   1.387       .  A
C1715      H1722   1.082       .  S
C1716      C1717   1.410       .  A
C1717      C1718   1.413       .  A
C1717     Br1724   1.915       .  S
C1718      C1719   1.411       .  A
C1718      H1723   1.083       .  S
C1719      C1720   1.401       .  A
C1720     Br1721   1.917       .  S
C1725      C1726   1.400       .  A
C1725      C1730   1.406       .  A
C1725      H1732   1.083       .  S
C1726      C1727   1.410       .  A
C1727      C1728   1.396       .  A
C1727     Br1734   1.915       .  S
C1728      C1729   1.401       .  A
C1728      H1733   1.083       .  S
C1729      C1975   1.491   1_545  S
C1729      C1730   1.420       .  A
C1730     Br1731   1.921       .  S
C1735      C1736   1.396       .  A
C1735      C1740   1.394       .  A
C1735      H1742   1.083       .  S
C1736      C1737   1.404       .  A
C1737      C1738   1.388       .  A
C1737     Br1744   1.919       .  S
C1738      C1739   1.402       .  A
C1738      H1743   1.083       .  S
C1739      C1740   1.416       .  A
C1740     Br1741   1.923       .  S
C1745      C1746   1.405       .  A
C1745      C1750   1.399       .  A
C1745      H1752   1.077       .  S
C1746      C1747   1.415       .  A
C1747      C1748   1.395       .  A
C1747     Br1754   1.917       .  S
C1748      C1749   1.398       .  A
C1748      H1753   1.084       .  S
C1749      C1750   1.406       .  A
C1750     Br1751   1.919       .  S
C1755      C1756   1.404       .  A
C1755      C1760   1.400       .  A
C1755      H1762   1.084       .  S
C1756      C1757   1.408       .  A
C1757      C1758   1.400       .  A
C1757     Br1764   1.920       .  S
C1758      C1759   1.409       .  A
C1758      H1763   1.084       .  S
C1759      C1760   1.412       .  A
C1760     Br1761   1.917       .  S
O1765     Zr1801   2.411       .  S
O1765      C1776   1.287       .  A
O1766     Zr1800   2.403       .  S
O1766      C1777   1.285       .  A
O1767     Zr1773   2.403       .  S
O1767      C1778   1.286       .  A
O1768     Zr1773   2.403       .  S
O1768      C1779   1.286       .  A
O1769     Zr1803   2.494       .  S
O1769      C1779   1.304       .  A
O1770     Zr1802   2.500       .  S
O1770      C1778   1.302       .  A
O1771     Zr1773   2.438       .  S
O1771      C1777   1.292       .  A
O1772     Zr1773   2.468       .  S
O1772      C1776   1.297       .  A
Zr1773     O1774   2.332       .  S
Zr1773     O1775   2.329       .  S
Zr1773     O1783   2.326       .  S
Zr1773     O1781   2.341       .  S
O1774     Zr1800   2.349       .  S
O1774     Zr1803   2.339       .  S
O1775     Zr1801   2.346       .  S
O1775     Zr1802   2.341       .  S
C1776      C2347   1.484       .  S
C1777      C2324   1.452       .  S
C1778      C2314   1.475       .  S
C1779      C2334   1.477       .  S
H1780      O1781   0.962       .  S
O1781     Zr1800   2.315       .  S
O1781     Zr1802   2.334       .  S
H1782      O1783   0.963       .  S
O1783     Zr1801   2.331       .  S
O1783     Zr1803   2.356       .  S
O1784     Zr1800   2.387       .  S
O1784      C1807   1.282       .  A
O1785     Zr1801   2.407       .  S
O1785      C1808   1.287       .  A
O1786     Zr1802   2.375       .  S
O1786      C1809   1.281       .  A
O1787     Zr1803   2.425       .  S
O1787      C1810   1.290       .  A
O1788     Zr1803   2.410       .  S
O1788      C1811   1.272       .  A
O1789     Zr1802   2.403       .  S
O1789      C1812   1.288       .  A
O1790     Zr1804   2.372       .  S
O1790      C1813   1.277       .  A
O1791     Zr1804   2.418       .  S
O1791      C1814   1.288       .  A
O1792     Zr1802   2.498       .  S
O1792      C1813   1.301       .  A
O1793     Zr1803   2.481       .  S
O1793      C1814   1.302       .  A
O1794     Zr1800   2.576       .  S
O1794      C1809   1.318       .  A
O1795     Zr1801   2.423       .  S
O1795      C1812   1.287       .  A
O1796     Zr1801   2.481       .  S
O1796      C1811   1.290       .  A
O1797     Zr1800   2.487       .  S
O1797      C1810   1.303       .  A
O1798     Zr1804   2.464       .  S
O1798      C1807   1.298       .  A
O1799     Zr1804   2.480       .  S
O1799      C1808   1.298       .  A
Zr1800     O1806   2.322       .  S
Zr1800     O1818   2.370       .  S
Zr1801     O1805   2.342       .  S
Zr1801     O1816   2.356       .  S
Zr1802     O1806   2.328       .  S
Zr1802     O1816   2.351       .  S
Zr1803     O1805   2.337       .  S
Zr1803     O1818   2.343       .  S
Zr1804     O1805   2.315       .  S
Zr1804     O1806   2.350       .  S
Zr1804     O1818   2.343       .  S
Zr1804     O1816   2.347       .  S
C1807      C2244   1.471       .  S
C1808      C2264   1.500       .  S
C1809      C2284   1.515       .  S
C1810      C2234   1.501       .  S
C1811      C2304   1.488       .  S
C1812      C2257   1.474       .  S
C1813      C2274   1.471       .  S
C1814      C2294   1.494       .  S
H1815      O1816   0.966       .  S
H1817      O1818   0.966       .  S
C1819      C2174   1.500       .  S
C1819      C1820   1.419   1_655  A
C1820      C2224   1.477   1_455  S
C1821      C2214   1.501       .  S
C1821      C1822   1.416       .  A
C1822      C2197   1.493       .  S
C1822      C1823   1.419       .  A
C1823      C2187   1.480       .  S
C1824      C2204   1.500       .  S
C1825      C1826   1.394       .  A
C1825      C1830   1.389       .  A
C1826      C1827   1.402       .  A
C1826      H1831   1.084       .  S
C1827      C2184   1.478       .  S
C1827      C1828   1.408       .  A
C1828      C1829   1.402       .  A
C1828      H1832   1.084       .  S
C1829      C2164   1.459       .  S
C1829      C1830   1.387       .  A
C1830      H1833   1.086       .  S
C1834      C2154   1.498       .  S
C1834      C1839   1.419       .  A
C1835      C1836   1.402       .  A
C1835      H1840   1.084       .  S
C1836      C2337   1.471       .  S
C1836      C1837   1.389       .  A
C1837      C1838   1.397       .  A
C1837      H1841   1.085       .  S
C1838      C2217   1.495       .  S
C1839      H1842   1.077       .  S
C1843      C2344   1.483       .  S
C1843      C1844   1.405       .  A
C1843      C1848   1.401       .  A
C1844      C1845   1.407       .  A
C1844      H1849   1.083       .  S
C1845      C2207   1.505       .  S
C1845      C1846   1.418       .  A
C1846      C1847   1.415       .  A
C1847      C1848   1.401       .  A
C1848      H1851   1.084       .  S
C1852      C2134   1.483       .  S
C1852      C1857   1.397       .  A
C1853      C1854   1.418       .  A
C1853      H1858   1.083       .  S
C1854      C2267   1.488       .  S
C1854      C1855   1.397       .  A
C1855      C1856   1.388       .  A
C1855      H1859   1.085       .  S
C1856      C2227   1.454       .  S
C1857      H1860   1.085       .  S
C1861      C2307   1.481       .  S
C1861      C1862   1.412       .  A
C1861      C1866   1.402       .  A
C1862      C1863   1.408       .  A
C1862      H1867   1.084       .  S
C1863      C2194   1.479       .  S
C1863      C1864   1.398       .  A
C1864      C1865   1.399       .  A
C1864      H1868   1.085       .  S
C1865      C2127   1.475       .  S
C1865      C1866   1.401       .  A
C1866      H1869   1.084       .  S
C1870      C2297   1.507       .  S
C1870      C1871   1.426       .  A
C1870      C1875   1.408       .  A
C1871      C1872   1.427       .  A
C1871      H1876   1.076       .  S
C1872      C2177   1.515       .  S
C1872      C1873   1.397       .  A
C1873      C1874   1.384       .  A
C1873      H1877   1.077       .  S
C1874      C2114   1.469       .  S
C1874      C1875   1.393       .  A
C1875      H1878   1.084       .  S
O1879     Zr1915   2.384       .  S
O1879      C1890   1.283       .  A
O1880     Zr1914   2.410       .  S
O1880      C1891   1.284       .  A
O1881     Zr1887   2.376       .  S
O1881      C1892   1.280       .  A
O1882     Zr1887   2.384       .  S
O1882      C1893   1.280       .  A
O1883     Zr1917   2.510       .  S
O1883      C1893   1.303       .  A
O1884     Zr1916   2.513       .  S
O1884      C1892   1.305       .  A
O1885     Zr1887   2.443       .  S
O1885      C1891   1.294       .  A
O1886     Zr1887   2.460       .  S
O1886      C1890   1.295       .  A
Zr1887     O1888   2.332       .  S
Zr1887     O1889   2.327       .  S
Zr1887     O1897   2.332       .  S
Zr1887     O1895   2.341       .  S
O1888     Zr1914   2.322       .  S
O1888     Zr1917   2.317       .  S
O1889     Zr1915   2.321       .  S
O1889     Zr1916   2.343       .  S
C1890      C2167   1.480       .  S
C1891      C2074   1.478       .  S
C1892      C2137   1.488       .  S
C1893      C2084   1.485       .  S
H1894      O1895   0.964       .  S
O1895     Zr1914   2.366       .  S
O1895     Zr1916   2.343       .  S
H1896      O1897   0.965       .  S
O1897     Zr1915   2.360       .  S
O1897     Zr1917   2.339       .  S
O1898     Zr1914   2.442       .  S
O1898      C1921   1.293       .  A
O1899     Zr1915   2.397       .  S
O1899      C1922   1.286       .  A
O1900     Zr1916   2.434       .  S
O1900      C1923   1.292       .  A
O1901     Zr1917   2.379       .  S
O1901      C1924   1.279       .  A
O1902     Zr1917   2.407       .  S
O1902      C1925   1.289       .  A
O1903     Zr1916   2.385       .  S
O1903      C1926   1.283       .  A
O1904     Zr1918   2.398       .  S
O1904      C1927   1.283       .  A
O1905     Zr1918   2.403       .  S
O1905      C1928   1.285       .  A
O1906     Zr1916   2.518       .  S
O1906      C1927   1.307       .  A
O1907     Zr1917   2.477       .  S
O1907      C1928   1.298       .  A
O1908     Zr1914   2.416       .  S
O1908      C1923   1.290       .  A
O1909     Zr1915   2.537       .  S
O1909      C1926   1.310       .  A
O1910     Zr1915   2.470       .  S
O1910      C1925   1.299       .  A
O1911     Zr1914   2.525       .  S
O1911      C1924   1.308       .  A
O1912     Zr1918   2.458       .  S
O1912      C1921   1.295       .  A
O1913     Zr1918   2.455       .  S
O1913      C1922   1.294       .  A
Zr1914     O1920   2.364       .  S
Zr1914     O1932   2.311       .  S
Zr1915     O1919   2.352       .  S
Zr1915     O1930   2.315       .  S
Zr1916     O1920   2.351       .  S
Zr1916     O1930   2.339       .  S
Zr1917     O1919   2.339       .  S
Zr1917     O1932   2.336       .  S
Zr1918     O1919   2.328       .  S
Zr1918     O1920   2.333       .  S
Zr1918     O1932   2.337       .  S
Zr1918     O1930   2.344       .  S
C1921      C2097   1.499       .  S
C1922      C2117   1.473       .  S
C1923      C2104   1.472       .  S
C1924      C2054   1.502       .  S
C1925      C2124   1.473       .  S
C1926      C2157   1.499       .  S
C1927      C2144   1.483       .  S
C1928      C2067   1.466       .  S
H1929      O1930   0.963       .  S
H1931      O1932   0.962       .  S
C1933      C2287   1.508   1_554  S
C1933      C1934   1.421       .  A
C1933      C1938   1.417       .  A
C1934      C1935   1.411       .  A
C1934      H1939   1.083       .  S
C1935      C1936   1.392       .  A
C1936      C1937   1.403       .  A
C1937      C2044   1.499       .  S
C1937      C1938   1.417       .  A
C1938      H1941   1.082   1_554  S
C1942      C2047   1.486       .  S
C1943      C1994   1.480       .  S
C1943      C1944   1.418   1_556  A
C1944      C2034   1.498       .  S
C1945      C1946   1.419   1_565  A
C1946      C2014   1.470       .  S
C1947      C2004   1.495       .  S
C1948      C2107   1.469   1_556  S
C1948      C1949   1.398       .  A
C1948      C1953   1.397       .  A
C1949      C1950   1.398       .  A
C1949      H1954   1.085       .  S
C1950      C2017   1.460   1_565  S
C1951      C1952   1.401       .  A
C1951      H1955   1.084       .  S
C1952      C2327   1.472       .  S
C1953      H1956   1.082       .  S
C1957      C2077   1.458       .  S
C1957      C1962   1.400       .  A
C1958      C1959   1.390       .  A
C1958      H1963   1.086       .  S
C1959      C2277   1.475       .  S
C1959      C1960   1.408       .  A
C1960      C1961   1.418   1_655  A
C1960      H1964   1.081       .  S
C1961      C2024   1.498       .  S
C1962      H1965   1.084       .  S
C1966      C2057   1.494       .  S
C1966      C1967   1.408       .  A
C1966      C1971   1.411       .  A
C1967      C1968   1.410       .  A
C1967      H1972   1.083       .  S
C1968      C2237   1.488       .  S
C1968      C1969   1.409       .  A
C1969      C1970   1.404       .  A
C1969      H1973   1.084       .  S
C1970      C2007   1.489       .  S
C1970      C1971   1.402       .  A
C1971      H1974   1.085       .  S
C1975      C1976   1.421       .  A
C1975      C1980   1.401       .  A
C1976      C1977   1.413       .  A
C1976      H1981   1.083       .  S
C1977      C2094   1.486       .  S
C1977      C1978   1.398       .  A
C1978      C1979   1.392       .  A
C1978      H1982   1.085       .  S
C1979      C1997   1.462       .  S
C1979      C1980   1.394       .  A
C1984      C2247   1.473       .  S
C1984      C1985   1.392   1_556  A
C1984      C1989   1.390       .  A
C1985      C1986   1.397       .  A
C1985      H1990   1.084       .  S
C1986      C2064   1.470       .  S
C1986      C1987   1.413       .  A
C1987      C1988   1.420       .  A
C1987      H1991   1.079       .  S
C1988      C2037   1.513       .  S
C1988      C1989   1.403   1_554  A
C1989      H1992   1.071       .  S
C1993      C1994   1.408       .  A
C1993      C1998   1.393       .  A
C1993      H2000   1.084       .  S
C1994      C1995   1.411   1_556  A
C1995      C1996   1.391   1_554  A
C1995     Br2002   1.912   1_565  S
C1996      C1997   1.400       .  A
C1996      H2001   1.084   1_556  S
C1997      C1998   1.400       .  A
C1998     Br1999   1.917       .  S
C2003      C2004   1.400   1_554  A
C2003      C2008   1.401   1_554  A
C2003      H2010   1.082       .  S
C2004      C2005   1.412       .  A
C2005      C2006   1.406       .  A
C2005     Br2012   1.918       .  S
C2006      C2007   1.404       .  A
C2006      H2011   1.083       .  S
C2007      C2008   1.412       .  A
C2008     Br2009   1.918   1_556  S
C2013      C2014   1.401       .  A
C2013      C2018   1.393       .  A
C2013      H2020   1.082       .  S
C2015      C2016   1.390       .  A
C2015     Br2022   1.917       .  S
C2016      H2021   1.084       .  S
C2017      C2018   1.406       .  A
C2018     Br2019   1.919   1_545  S
C2023      C2028   1.403       .  A
C2023      H2030   1.083       .  S
C2024      C2025   1.412       .  A
C2025      C2026   1.402       .  A
C2025     Br2032   1.919       .  S
C2026      C2027   1.408       .  A
C2026      H2031   1.082       .  S
C2028     Br2029   1.914       .  S
C2033      C2034   1.395   1_556  A
C2033      C2038   1.389       .  A
C2033      H2040   1.080       .  S
C2034      C2035   1.411       .  A
C2035      C2036   1.405       .  A
C2035     Br2042   1.915       .  S
C2036      C2037   1.413       .  A
C2036      H2041   1.078       .  S
C2037      C2038   1.423   1_554  A
C2038     Br2039   1.926       .  S
C2043      C2048   1.394       .  A
C2043      H2050   1.083       .  S
C2044      C2045   1.418   1_554  A
C2045      C2046   1.408       .  A
C2045     Br2052   1.918       .  S
C2046      C2047   1.404       .  A
C2046      H2051   1.083       .  S
C2048     Br2049   1.923       .  S
C2053      C2054   1.412   1_556  A
C2053      C2058   1.419       .  A
C2053      H2060   1.083       .  S
C2054      C2055   1.427       .  A
C2055      C2056   1.384       .  A
C2055     Br2062   1.924       .  S
C2056      C2057   1.391   1_554  A
C2056      H2061   1.083       .  S
C2057      C2058   1.415       .  A
C2058     Br2059   1.916       .  S
C2063      C2064   1.397       .  A
C2063      C2068   1.387       .  A
C2063      H2070   1.085       .  S
C2064      C2065   1.407       .  A
C2065      C2066   1.407       .  A
C2065     Br2072   1.914       .  S
C2066      C2067   1.406       .  A
C2066      H2071   1.082       .  S
C2067      C2068   1.408       .  A
C2068     Br2069   1.919       .  S
C2073      C2074   1.408       .  A
C2073      C2078   1.397       .  A
C2073      H2080   1.083       .  S
C2074      C2075   1.421       .  A
C2075      C2076   1.387       .  A
C2075     Br2082   1.924   1_554  S
C2076      C2077   1.392       .  A
C2076      H2081   1.085   1_554  S
C2077      C2078   1.403       .  A
C2078     Br2079   1.918       .  S
C2083      C2084   1.406       .  A
C2083      C2088   1.404       .  A
C2083      H2090   1.084       .  S
C2084      C2085   1.412       .  A
C2085      C2086   1.407       .  A
C2085     Br2092   1.918       .  S
C2086      C2087   1.405       .  A
C2086      H2091   1.083       .  S
C2087      C2088   1.410       .  A
C2088     Br2089   1.918       .  S
C2093      C2094   1.402   1_554  A
C2093      C2098   1.396       .  A
C2093      H2100   1.084       .  S
C2094      C2095   1.406       .  A
C2095      C2096   1.409       .  A
C2095     Br2102   1.916       .  S
C2096      C2097   1.414   1_556  A
C2096      H2101   1.083       .  S
C2097      C2098   1.418       .  A
C2098     Br2099   1.923       .  S
C2103      C2104   1.407       .  A
C2103      C2108   1.391   1_554  A
C2103      H2110   1.083       .  S
C2104      C2105   1.412       .  A
C2105      C2106   1.392       .  A
C2105     Br2112   1.923       .  S
C2106      C2107   1.403       .  A
C2106      H2111   1.084       .  S
C2107      C2108   1.406   1_554  A
C2108     Br2109   1.922       .  S
C2113      C2114   1.403       .  A
C2113      C2118   1.397       .  A
C2113      H2120   1.084       .  S
C2114      C2115   1.405       .  A
C2115      C2116   1.391       .  A
C2115     Br2122   1.921       .  S
C2116      C2117   1.406       .  A
C2116      H2121   1.084       .  S
C2117      C2118   1.412       .  A
C2118     Br2119   1.918       .  S
C2123      C2124   1.403       .  A
C2123      C2128   1.401       .  A
C2123      H2130   1.084       .  S
C2124      C2125   1.414       .  A
C2125      C2126   1.394       .  A
C2125     Br2132   1.921       .  S
C2126      C2127   1.397       .  A
C2126      H2131   1.084       .  S
C2127      C2128   1.411       .  A
C2128     Br2129   1.919       .  S
C2133      C2134   1.394       .  A
C2133      C2138   1.399       .  A
C2133      H2140   1.084       .  S
C2134      C2135   1.411       .  A
C2135      C2136   1.407       .  A
C2135     Br2142   1.909       .  S
C2136      C2137   1.404       .  A
C2136      H2141   1.084       .  S
C2137      C2138   1.421       .  A
C2138     Br2139   1.917       .  S
C2143      C2144   1.407       .  A
C2143      C2148   1.397       .  A
C2143      H2150   1.084       .  S
C2144      C2145   1.407       .  A
C2145      C2146   1.413       .  A
C2145     Br2152   1.914       .  S
C2146      C2147   1.412       .  A
C2147      C2148   1.405       .  A
C2148     Br2149   1.919       .  S
C2153      C2154   1.397       .  A
C2153      C2158   1.394       .  A
C2153      H2160   1.084       .  S
C2154      C2155   1.415       .  A
C2155      C2156   1.419       .  A
C2155     Br2162   1.915       .  S
C2156      C2157   1.411       .  A
C2156      H2161   1.083       .  S
C2157      C2158   1.417       .  A
C2158     Br2159   1.909       .  S
C2163      C2164   1.403       .  A
C2163      C2168   1.396       .  A
C2163      H2170   1.084       .  S
C2164      C2165   1.395       .  A
C2165      C2166   1.389       .  A
C2165     Br2172   1.918       .  S
C2166      C2167   1.415       .  A
C2166      H2171   1.083       .  S
C2167      C2168   1.412       .  A
C2168     Br2169   1.921       .  S
C2173      C2174   1.393       .  A
C2173      C2178   1.390       .  A
C2173      H2180   1.077       .  S
C2174      C2175   1.412       .  A
C2175      C2176   1.406       .  A
C2175     Br2182   1.912       .  S
C2176      C2177   1.411       .  A
C2176      H2181   1.079       .  S
C2177      C2178   1.428       .  A
C2178     Br2179   1.932       .  S
C2183      C2184   1.404       .  A
C2183      C2188   1.394       .  A
C2184      C2185   1.410       .  A
C2185      C2186   1.395       .  A
C2185     Br2192   1.922       .  S
C2186      C2187   1.403       .  A
C2186      H2191   1.084       .  S
C2187      C2188   1.406       .  A
C2193      C2194   1.402       .  A
C2193      C2198   1.400       .  A
C2193      H2200   1.084       .  S
C2194      C2195   1.408       .  A
C2195      C2196   1.399       .  A
C2195     Br2202   1.914       .  S
C2196      C2197   1.403       .  A
C2196      H2201   1.083       .  S
C2197      C2198   1.410       .  A
C2198     Br2199   1.915       .  S
C2203      C2204   1.402       .  A
C2203      C2208   1.407       .  A
C2203      H2210   1.083       .  S
C2204      C2205   1.413       .  A
C2205      C2206   1.403       .  A
C2205     Br2212   1.920       .  S
C2206      C2207   1.406       .  A
C2206      H2211   1.083       .  S
C2207      C2208   1.422       .  A
C2208     Br2209   1.921       .  S
C2213      C2214   1.398       .  A
C2213      C2218   1.392       .  A
C2213      H2220   1.084       .  S
C2215      C2216   1.409       .  A
C2215     Br2222   1.915       .  S
C2216      H2221   1.083       .  S
C2217      C2218   1.417       .  A
C2218     Br2219   1.927       .  S
C2223      C2224   1.407       .  A
C2223      C2228   1.391       .  A
C2223      H2230   1.084       .  S
C2224      C2225   1.412   1_655  A
C2225      C2226   1.387   1_455  A
C2225     Br2232   1.916       .  S
C2226      C2227   1.398       .  A
C2226      H2231   1.084   1_655  S
C2227      C2228   1.398       .  A
C2228     Br2229   1.916       .  S
C2233      C2234   1.410       .  A
C2233      C2238   1.407       .  A
C2233      H2240   1.083       .  S
C2234      C2235   1.425       .  A
C2235      C2236   1.401       .  A
C2235     Br2242   1.926       .  S
C2236      C2237   1.398       .  A
C2236      H2241   1.084       .  S
C2237      C2238   1.410       .  A
C2238     Br2239   1.919       .  S
C2243      C2244   1.403       .  A
C2243      C2248   1.395       .  A
C2243      H2250   1.084       .  S
C2244      C2245   1.417       .  A
C2245      C2246   1.391       .  A
C2245     Br2252   1.927       .  S
C2246      C2247   1.399       .  A
C2246      H2251   1.084   1_556  S
C2247      C2248   1.411       .  A
C2248     Br2249   1.921       .  S
C2253      C2254   1.396       .  A
C2253      C2258   1.387       .  A
C2253      H2260   1.085       .  S
C2254      C2255   1.397       .  A
C2255      C2256   1.390       .  A
C2256      C2257   1.412       .  A
C2256      H2261   1.083       .  S
C2257      C2258   1.419       .  A
C2258     Br2259   1.927       .  S
C2263      C2264   1.417       .  A
C2263      C2268   1.401       .  A
C2263      H2270   1.083       .  S
C2264      C2265   1.416       .  A
C2265      C2266   1.401       .  A
C2265     Br2272   1.922       .  S
C2266      C2267   1.409       .  A
C2266      H2271   1.084       .  S
C2267      C2268   1.403       .  A
C2268     Br2269   1.919       .  S
C2273      C2274   1.405       .  A
C2273      C2278   1.396       .  A
C2273      H2280   1.084       .  S
C2274      C2275   1.409       .  A
C2275      C2276   1.402       .  A
C2275     Br2282   1.916       .  S
C2276      C2277   1.403       .  A
C2276      H2281   1.083       .  S
C2277      C2278   1.408       .  A
C2278     Br2279   1.920       .  S
C2283      C2284   1.413       .  A
C2283      C2288   1.425       .  A
C2283      H2290   1.082       .  S
C2284      C2285   1.426       .  A
C2285      C2286   1.397       .  A
C2285     Br2292   1.910       .  S
C2286      C2287   1.394       .  A
C2286      H2291   1.084       .  S
C2287      C2288   1.419       .  A
C2288     Br2289   1.915   1_556  S
C2293      C2294   1.413       .  A
C2293      C2298   1.410       .  A
C2293      H2300   1.084       .  S
C2294      C2295   1.408       .  A
C2295      C2296   1.396       .  A
C2295     Br2302   1.912       .  S
C2296      C2297   1.411       .  A
C2296      H2301   1.082       .  S
C2297      C2298   1.415       .  A
C2298     Br2299   1.919       .  S
C2303      C2304   1.408       .  A
C2303      C2308   1.387       .  A
C2303      H2310   1.082       .  S
C2304      C2305   1.410       .  A
C2305      C2306   1.413       .  A
C2305     Br2312   1.915       .  S
C2306      C2307   1.411       .  A
C2306      H2311   1.083       .  S
C2307      C2308   1.401       .  A
C2308     Br2309   1.917       .  S
C2313      C2314   1.400       .  A
C2313      C2318   1.406       .  A
C2313      H2320   1.083       .  S
C2314      C2315   1.410       .  A
C2315      C2316   1.396       .  A
C2315     Br2322   1.915       .  S
C2316      C2317   1.401       .  A
C2316      H2321   1.083       .  S
C2317      C2318   1.420       .  A
C2318     Br2319   1.921       .  S
C2323      C2324   1.396       .  A
C2323      C2328   1.394       .  A
C2323      H2330   1.083       .  S
C2324      C2325   1.404       .  A
C2325      C2326   1.388       .  A
C2325     Br2332   1.919       .  S
C2326      C2327   1.402       .  A
C2326      H2331   1.083       .  S
C2327      C2328   1.416       .  A
C2328     Br2329   1.923       .  S
C2333      C2334   1.405       .  A
C2333      C2338   1.399       .  A
C2333      H2340   1.077       .  S
C2334      C2335   1.415       .  A
C2335      C2336   1.395       .  A
C2335     Br2342   1.917       .  S
C2336      C2337   1.398       .  A
C2336      H2341   1.084       .  S
C2337      C2338   1.406       .  A
C2338     Br2339   1.919       .  S
C2343      C2344   1.404       .  A
C2343      C2348   1.400       .  A
C2343      H2350   1.084       .  S
C2344      C2345   1.408       .  A
C2345      C2346   1.400       .  A
C2345     Br2352   1.920       .  S
C2346      C2347   1.409       .  A
C2346      H2351   1.084       .  S
C2347      C2348   1.412       .  A
C2348     Br2349   1.917       .  S
