geometry optimzed in LAMMPS
_audit_creation_date              2020-11-30 
_audit_creation_method            'lammps2cif' 
_symmetry_space_group_name_H-M    'P1' 
_symmetry_Int_Tables_number       1 
_symmetry_cell_setting            triclinic 
loop_ 
_symmetry_equiv_pos_as_xyz 
  x,y,z 
_cell_length_a                    45.37517707 
_cell_length_b                    45.344881971670794 
_cell_length_c                    45.38682782037438 
_cell_angle_alpha                 90.01026196426736 
_cell_angle_beta                  90.31288424223705 
_cell_angle_gamma                 89.85767373433167 
loop_ 
_atom_site_label 
_atom_site_type_symbol 
_atom_site_fract_x 
_atom_site_fract_y 
_atom_site_fract_z 
_atom_site_charge 
Zn1        Zn  0.52682279  0.51964182  0.01954760     1.49700
Zn2        Zn  0.47469387  0.52070469  0.97109339     1.49400
Zn3        Zn  0.52418011  0.46968978  0.97003783     1.49100
Zn4        Zn  0.47519281  0.47103509  0.02142247     1.49500
O5          O  0.50017343  0.49523773  0.99553980    -1.84000
O6          O  0.51924752  0.56291364  0.01197224    -0.74700
O7          O  0.47989237  0.51150829  0.92767519    -0.74500
O8          O  0.56814737  0.47640107  0.97623099    -0.74000
O9          O  0.48417670  0.56393428  0.97770278    -0.74700
O10         O  0.56987657  0.51129278  0.01032051    -0.74300
O11         O  0.51491583  0.47721968  0.92691604    -0.74900
O12         O  0.48161187  0.42740763  0.01336015    -0.74300
O13         O  0.43149439  0.51494756  0.98088846    -0.75000
O14         O  0.51560899  0.42670899  0.97838651    -0.74400
O15         O  0.43156265  0.47968825  0.01479282    -0.74900
O16         O  0.48468717  0.47927135  0.06461559    -0.74800
O17         O  0.52043399  0.51252009  0.06315235    -0.74600
C18         C  0.50205128  0.57725870  0.99487375     0.77200
C19         C  0.49670704  0.49403566  0.91349536     0.77700
C20         C  0.58296443  0.49368405  0.99275422     0.76700
C21         C  0.49835517  0.41320708  0.99583531     0.77000
C22         C  0.41769591  0.49787504  0.99831560     0.78200
C23         C  0.50302497  0.49613556  0.07777334     0.77200
Zn24       Zn  0.52580241  0.02321925  0.52594311     1.49700
Zn25       Zn  0.52640223  0.97179247  0.47737819     1.49400
Zn26       Zn  0.47428807  0.97458369  0.52523105     1.49100
Zn27       Zn  0.47733134  0.02266454  0.47350235     1.49500
O28         O  0.50094876  0.99810680  0.50056491    -1.84000
O29         O  0.56938976  0.01519386  0.51919386    -0.74700
O30         O  0.51838706  0.92893559  0.48710832    -0.74500
O31         O  0.48220824  0.98206514  0.56860718    -0.74000
O32         O  0.56959664  0.98003110  0.48519366    -0.74700
O33         O  0.51764936  0.01566103  0.56940827    -0.74300
O34         O  0.48064236  0.93084017  0.51796232    -0.74900
O35         O  0.43360730  0.01650394  0.47999013    -0.74300
O36         O  0.51972866  0.97740993  0.43357141    -0.75000
O37         O  0.43119811  0.98464037  0.51701698    -0.74400
O38         O  0.48661931  0.01337343  0.43067210    -0.74900
O39         O  0.48539501  0.06606940  0.48037863    -0.74800
O40         O  0.51826797  0.06653834  0.51681467    -0.74600
C41         C  0.58332545  0.99758114  0.50234965     0.77200
C42         C  0.49919576  0.91604258  0.50296074     0.77700
C43         C  0.49975843  0.99875474  0.58287621     0.76700
C44         C  0.41857487  0.00146963  0.49825628     0.77000
C45         C  0.50369912  0.99478726  0.41828117     0.78200
C46         C  0.50207676  0.08012665  0.49815651     0.77200
Zn47       Zn  0.02604324  0.52776406  0.52303902     1.49700
Zn48       Zn  0.02225951  0.47814262  0.47357246     1.49400
Zn49       Zn  0.97367656  0.47942657  0.52466982     1.49100
Zn50       Zn  0.97350398  0.53013340  0.47496370     1.49500
O51         O  0.99874352  0.50392573  0.49909852    -1.84000
O52         O  0.06916276  0.51782691  0.51472376    -0.74700
O53         O  0.01404767  0.43513257  0.48172903    -0.74500
O54         O  0.98215572  0.48855543  0.56779781    -0.74000
O55         O  0.06610152  0.48402996  0.47958312    -0.74700
O56         O  0.01859173  0.52110166  0.56647006    -0.74300
O57         O  0.98148229  0.43556235  0.51796461    -0.74900
O58         O  0.92998202  0.52256850  0.48293093    -0.74300
O59         O  0.01345123  0.48639444  0.43086251    -0.75000
O60         O  0.92999115  0.48729974  0.51674127    -0.74400
O61         O  0.98037750  0.52260034  0.43127842    -0.74900
O62         O  0.98226605  0.57355930  0.48371549    -0.74800
O63         O  0.01959094  0.57136275  0.51531963    -0.74600
C64         C  0.08150680  0.50020155  0.49663209     0.77200
C65         C  0.99800935  0.42144149  0.50014553     0.77700
C66         C  0.00048979  0.50539106  0.58098577     0.76700
C67         C  0.91601999  0.50505119  0.49982616     0.77000
C68         C  0.99681533  0.50458074  0.41727816     0.78200
C69         C  0.00136843  0.58642805  0.50000032     0.77200
Zn70       Zn  0.02459917  0.98097351  0.03078089     1.49700
Zn71       Zn  0.97577474  0.98001475  0.98010252     1.49400
Zn72       Zn  0.97533577  0.03228496  0.02847260     1.49100
Zn73       Zn  0.02606482  0.02989963  0.97948321     1.49500
O74         O  0.00038020  0.00589005  0.00472222    -1.84000
O75         O  0.01571685  0.93744337  0.02549715    -0.74700
O76         O  0.93243746  0.98782648  0.98770991    -0.74500
O77         O  0.98248977  0.02550572  0.07239073    -0.74000
O78         O  0.98366939  0.93679561  0.98844786    -0.74700
O79         O  0.01737124  0.99093003  0.07332395    -0.74300
O80         O  0.93188567  0.02511290  0.01961792    -0.74900
O81         O  0.02072493  0.07364480  0.98742658    -0.74300
O82         O  0.98374106  0.98679206  0.93672827    -0.75000
O83         O  0.98406600  0.07523887  0.01971100    -0.74400
O84         O  0.01676255  0.02294775  0.93626095    -0.74900
O85         O  0.06904844  0.01922731  0.98619377    -0.74800
O86         O  0.06789792  0.98610802  0.02228936    -0.74600
C87         C  0.99958154  0.92329593  0.00735525     0.77200
C88         C  0.91844067  0.00647868  0.00337444     0.77700
C89         C  0.99972005  0.00826127  0.08656856     0.76700
C90         C  0.00292400  0.08818205  0.00353757     0.77000
C91         C  0.00012664  0.00473387  0.92275910     0.78200
C92         C  0.08214245  0.00144029  0.00368827     0.77200
C93         C  0.75798868  0.47714203  0.01433646     0.03200
C94         C  0.77315370  0.49670024  0.99595259    -0.12900
C95         C  0.75775992  0.51515921  0.97648360     0.00700
C96         C  0.72684319  0.51364509  0.97493262    -0.11500
C97         C  0.71136247  0.49394257  0.99300123     0.03200
C98         C  0.72705492  0.47560614  0.01248548    -0.10900
H99         H  0.79695092  0.49829603  0.99747080     0.08800
H100        H  0.71484942  0.52809982  0.96008281     0.06300
H101        H  0.71512498  0.46045992  0.02649061     0.06200
C102        C  0.24295455  0.51960192  0.01759288     0.03200
C103        C  0.27395142  0.51960752  0.01713010    -0.12900
C104        C  0.28941477  0.49973612  0.99907628     0.00700
C105        C  0.27345743  0.48038309  0.98078845    -0.11500
C106        C  0.24245363  0.48028309  0.98103115     0.03200
C107        C  0.22744434  0.50009987  0.99928716    -0.10900
H108        H  0.28603053  0.53450310  0.03141361     0.08800
H109        H  0.28520732  0.46573545  0.96607476     0.06300
H110        H  0.20355104  0.50025231  0.99932888     0.06200
C111        C  0.97725688  0.48551694  0.24253079     0.03200
C112        C  0.97629779  0.48610618  0.27350947    -0.12900
C113        C  0.99500304  0.50491028  0.28952109     0.00700
C114        C  0.01459447  0.52328448  0.27436987    -0.11500
C115        C  0.01546128  0.52305254  0.24346149     0.03200
C116        C  0.99699127  0.50393894  0.22775237    -0.10900
H117        H  0.96131115  0.47169984  0.28515306     0.08800
H118        H  0.02924538  0.53765288  0.28664800     0.06300
H119        H  0.99813920  0.50328397  0.20391172     0.06200
C120        C  0.01981177  0.26282276  0.98042745     0.03200
C121        C  0.01916774  0.23187412  0.97965578    -0.12900
C122        C  0.00092613  0.21610075  0.99897510     0.00700
C123        C  0.98343074  0.23173637  0.01919577    -0.11500
C124        C  0.98384761  0.26268819  0.01981286     0.03200
C125        C  0.00200183  0.27808320  0.00038075    -0.10900
H126        H  0.03280047  0.22010832  0.96400512     0.08800
H127        H  0.96938695  0.21984641  0.03432425     0.06300
H128        H  0.00183608  0.30199516  0.00038910     0.06200
C129        C  0.02155984  0.48940724  0.75599032     0.03200
C130        C  0.00278909  0.50894828  0.77088974    -0.12900
C131        C  0.98346732  0.52753578  0.75529088     0.00700
C132        C  0.98300892  0.52655766  0.72432861    -0.11500
C133        C  0.00143050  0.50697085  0.70907255     0.03200
C134        C  0.02048085  0.48835534  0.72498611    -0.10900
H135        H  0.00308318  0.50960507  0.79475594     0.08800
H136        H  0.96823107  0.54091497  0.71210976     0.06300
H137        H  0.03439435  0.47299747  0.71314860     0.06200
Zn138      Zn  0.12511415  0.37643657  0.87155481     1.49700
Zn139      Zn  0.19184512  0.35557675  0.85686640     1.49400
Zn140      Zn  0.14007567  0.30905154  0.85270776     1.49100
Zn141      Zn  0.14379186  0.36026817  0.80584878     1.49500
O142        O  0.15007057  0.35056975  0.84709329    -1.84000
O143        O  0.15121533  0.40208140  0.89823680    -0.74700
O144        O  0.21035670  0.31788201  0.87157369    -0.74500
O145        O  0.10733448  0.30523457  0.88113382    -0.74000
O146        O  0.19648341  0.38558601  0.88867184    -0.74700
O147        O  0.09871980  0.35085105  0.89745703    -0.74300
O148        O  0.17422093  0.28541496  0.86869864    -0.74900
O149        O  0.13031516  0.32536922  0.78229893    -0.74300
O150        O  0.21556169  0.36819783  0.82126399    -0.75000
O151        O  0.12861760  0.28910218  0.81488559    -0.74400
O152        O  0.18120049  0.37217684  0.78675961    -0.74900
O153        O  0.11498154  0.39302292  0.80063002    -0.74800
O154        O  0.09915789  0.40360109  0.84568941    -0.74600
C155        C  0.17904809  0.40244771  0.90268670     0.77200
C156        C  0.20088560  0.29167361  0.87468843     0.77700
C157        C  0.09381661  0.32312361  0.89786036     0.76700
C158        C  0.12641868  0.29833544  0.78851606     0.77000
C159        C  0.20801790  0.37356022  0.79469862     0.78200
C160        C  0.09861410  0.40781637  0.81783593     0.77200
C161        C  0.98007760  0.74863491  0.98466713     0.03200
C162        C  0.99961098  0.73282725  0.00271107    -0.12900
C163        C  0.01860294  0.74757531  0.02206929     0.00700
C164        C  0.01897959  0.77855622  0.02246177    -0.11500
C165        C  0.99974896  0.79491638  0.00423145     0.03200
C166        C  0.97995926  0.77960654  0.98576491    -0.10900
H167        H  0.99984879  0.70893216  0.00188188     0.08800
H168        H  0.03432265  0.78984701  0.03692157     0.06300
H169        H  0.96448495  0.79172547  0.97210445     0.06200
Zn170      Zn  0.82519293  0.68163746  0.82877413     1.49700
Zn171      Zn  0.83972448  0.61432806  0.84121698     1.49400
Zn172      Zn  0.89062217  0.66318460  0.84327312     1.49100
Zn173      Zn  0.84005177  0.66215722  0.89366670     1.49500
O174        O  0.84909408  0.65505692  0.85201173    -1.84000
O175        O  0.79558293  0.65978458  0.80523256    -0.74700
O176        O  0.87495371  0.59419005  0.82343085    -0.74500
O177        O  0.89553594  0.69316223  0.81047530    -0.74000
O178        O  0.80729075  0.61247861  0.81064087    -0.74700
O179        O  0.84893774  0.70404434  0.80004879    -0.74300
O180        O  0.91116387  0.62670140  0.82808537    -0.74900
O181        O  0.87623892  0.67918292  0.91394798    -0.74300
O182        O  0.82541107  0.59172664  0.87674207    -0.75000
O183        O  0.91072850  0.67948698  0.87926776    -0.74400
O184        O  0.82601470  0.62445664  0.91321761    -0.74900
O185        O  0.80710780  0.69230611  0.89877884    -0.74800
O186        O  0.80283311  0.70997747  0.85330989    -0.74600
C187        C  0.79153383  0.63275957  0.79928175     0.77200
C188        C  0.90166791  0.60166225  0.81953690     0.77700
C189        C  0.87627866  0.70653854  0.79500351     0.76700
C190        C  0.90233391  0.68516508  0.90539781     0.77000
C191        C  0.82059628  0.59857447  0.90354195     0.78200
C192        C  0.79602583  0.71043524  0.88038231     0.77200
Zn193      Zn  0.87416220  0.37512385  0.12663545     1.49700
Zn194      Zn  0.80835833  0.35749745  0.14401616     1.49400
Zn195      Zn  0.85716470  0.30759154  0.14265976     1.49100
Zn196      Zn  0.85760741  0.35623809  0.19295101     1.49500
O197        O  0.84970135  0.34920464  0.15132092    -1.84000
O198        O  0.84804466  0.40030946  0.09943398    -0.74700
O199        O  0.78690855  0.32213092  0.12926911    -0.74500
O200        O  0.88762980  0.30403069  0.11135089    -0.74000
O201        O  0.80290416  0.38908098  0.11453415    -0.74700
O202        O  0.90145174  0.35007181  0.10106643    -0.74300
O203        O  0.82051898  0.28674508  0.12842211    -0.74900
O204        O  0.87073896  0.31945929  0.21356682    -0.74300
O205        O  0.78750320  0.37019516  0.18020212    -0.75000
O206        O  0.87114493  0.28534736  0.17873760    -0.74400
O207        O  0.82191519  0.37104099  0.21476744    -0.74900
O208        O  0.88925023  0.38579050  0.19772694    -0.74800
O209        O  0.89934685  0.40219948  0.15267096    -0.74600
C210        C  0.82009628  0.40354849  0.09802889     0.77200
C211        C  0.79410144  0.29545073  0.12455948     0.77700
C212        C  0.90341238  0.32224985  0.09717880     0.76700
C213        C  0.87491921  0.29292168  0.20550185     0.77000
C214        C  0.79526248  0.37474924  0.20669341     0.78200
C215        C  0.90337787  0.40266835  0.18054624     0.77200
Zn216      Zn  0.17492212  0.67288251  0.17759224     1.49700
Zn217      Zn  0.10941235  0.66062805  0.16064299     1.49400
Zn218      Zn  0.16044435  0.66070708  0.11130587     1.49100
Zn219      Zn  0.15897735  0.60800755  0.15937297     1.49500
O220        O  0.15056835  0.65002753  0.15186476    -1.84000
O221        O  0.15181599  0.69388441  0.20709548    -0.74700
O222        O  0.08933129  0.67724893  0.12447335    -0.74500
O223        O  0.19079882  0.69360770  0.10909970    -0.74000
O224        O  0.10498475  0.69075315  0.19379061    -0.74700
O225        O  0.19771302  0.70309057  0.15655829    -0.74300
O226        O  0.12431031  0.67625372  0.09036756    -0.74900
O227        O  0.17450087  0.58855686  0.12214984    -0.74300
O228        O  0.08861497  0.62471761  0.17540516    -0.75000
O229        O  0.17711549  0.62553563  0.09002092    -0.74400
O230        O  0.12174266  0.58836172  0.17401086    -0.74900
O231        O  0.18998875  0.60202978  0.19204460    -0.74800
O232        O  0.20164626  0.64859902  0.20140757    -0.74600
C233        C  0.12496221  0.70010451  0.21115118     0.77200
C234        C  0.09820668  0.68270711  0.09842201     0.77700
C235        C  0.20253891  0.70871200  0.12965295     0.76700
C236        C  0.18157485  0.59862967  0.09687332     0.77000
C237        C  0.09605914  0.59803018  0.18020132     0.78200
C238        C  0.20454813  0.62127835  0.20644846     0.77200
C239        C  0.51459731  0.23824667  0.01555282     0.03200
C240        C  0.49493608  0.22323326  0.99701234    -0.12900
C241        C  0.47500046  0.23884115  0.97923131     0.00700
C242        C  0.47437287  0.26976125  0.98025178    -0.11500
C243        C  0.49393690  0.28516280  0.99870356     0.03200
C244        C  0.51382189  0.26925143  0.01651131    -0.10900
H245        H  0.49527615  0.19933575  0.99625080     0.08800
H246        H  0.45916840  0.28180539  0.96619220     0.06300
H247        H  0.52840905  0.28105137  0.03132748     0.06200
C248        C  0.48674629  0.75091438  0.02320967     0.03200
C249        C  0.48635909  0.71993828  0.02165652    -0.12900
C250        C  0.50415658  0.70496263  0.00131409     0.00700
C251        C  0.52249209  0.72109177  0.98253986    -0.11500
C252        C  0.52346035  0.75194657  0.98435410     0.03200
C253        C  0.50541340  0.76673488  0.00447673    -0.10900
H254        H  0.47197288  0.70749612  0.03600168     0.08800
H255        H  0.53619794  0.70964011  0.96671776     0.06300
H256        H  0.50520728  0.79063527  0.00483583     0.06200
C257        C  0.48906386  0.97383043  0.24431412     0.03200
C258        C  0.49079646  0.97337433  0.27516798    -0.12900
C259        C  0.50869978  0.99355969  0.29029360     0.00700
C260        C  0.52582476  0.01361411  0.27416364    -0.11500
C261        C  0.52456677  0.01413950  0.24310858     0.03200
C262        C  0.50618187  0.99394699  0.22842373    -0.10900
H263        H  0.47754237  0.95783849  0.28745707     0.08800
H264        H  0.54019433  0.02868983  0.28587638     0.06300
H265        H  0.50442226  0.99446365  0.20460383     0.06200
C266        C  0.25580834  0.01446121  0.98381817     0.03200
C267        C  0.22498448  0.01459685  0.98506294    -0.12900
C268        C  0.20995682  0.99554737  0.00411433     0.00700
C269        C  0.22636982  0.97610055  0.02205805    -0.11500
C270        C  0.25740593  0.97594785  0.02114422     0.03200
C271        C  0.27192686  0.99522915  0.00194051    -0.10900
H272        H  0.21266182  0.02956664  0.97099913     0.08800
H273        H  0.21507517  0.96097189  0.03657809     0.06300
H274        H  0.29579222  0.99513237  0.00093276     0.06200
C275        C  0.74497386  0.98103515  0.98033601     0.03200
C276        C  0.72872009  0.99931282  0.99906840    -0.12900
C277        C  0.74304064  0.01783938  0.01926992     0.00700
C278        C  0.77405443  0.01851083  0.01996780    -0.11500
C279        C  0.79067939  0.00049418  0.00104630     0.03200
C280        C  0.77588537  0.98196376  0.98101820    -0.10900
H281        H  0.70484489  0.99900968  0.99800056     0.08800
H282        H  0.78526767  0.03298414  0.03535353     0.06300
H283        H  0.78830030  0.96853990  0.96570887     0.06200
Zn284      Zn  0.67618916  0.82221369  0.82734568     1.49700
Zn285      Zn  0.65890613  0.84013329  0.89232461     1.49400
Zn286      Zn  0.65987205  0.88863245  0.84024985     1.49100
Zn287      Zn  0.60996888  0.83808102  0.84131382     1.49500
O288        O  0.65107121  0.84753986  0.85048784    -1.84000
O289        O  0.69934380  0.79469442  0.85239334    -0.74700
O290        O  0.67380609  0.87700116  0.91224989    -0.74500
O291        O  0.69231376  0.89196458  0.80952656    -0.74000
O292        O  0.69127836  0.81003138  0.89817549    -0.74700
O293        O  0.70628365  0.84518331  0.80579323    -0.74300
O294        O  0.67571228  0.90989254  0.87605442    -0.74900
O295        O  0.58876479  0.87414064  0.82663140    -0.74300
O296        O  0.62292253  0.82348095  0.91219184    -0.75000
O297        O  0.62327387  0.90884686  0.82435600    -0.74400
O298        O  0.58941721  0.82076690  0.87650265    -0.74900
O299        O  0.60649901  0.80843365  0.80837281    -0.74800
O300        O  0.65335791  0.79966795  0.79726232    -0.74600
C301        C  0.70462828  0.79362805  0.87986091     0.77200
C302        C  0.68056113  0.90256809  0.90276178     0.77700
C303        C  0.70969615  0.87224898  0.79969690     0.76700
C304        C  0.59690820  0.90012418  0.81986572     0.77000
C305        C  0.59741489  0.81593919  0.90301014     0.78200
C306        C  0.62597671  0.79602373  0.79261160     0.77200
C307        C  0.48068343  0.01785347  0.75724392     0.03200
C308        C  0.48175852  0.01828782  0.72632043    -0.12900
C309        C  0.50112481  0.99955669  0.71106238     0.00700
C310        C  0.51955126  0.98040074  0.72710256    -0.11500
C311        C  0.51879820  0.98005963  0.75804479     0.03200
C312        C  0.49930162  0.99875560  0.77297026    -0.10900
H313        H  0.46736730  0.03305241  0.71412764     0.08800
H314        H  0.53437552  0.96568411  0.71553626     0.06300
H315        H  0.49859316  0.99841442  0.79684090     0.06200
Zn316      Zn  0.31421003  0.16817972  0.82406509     1.49700
Zn317      Zn  0.33629120  0.10346608  0.83891534     1.49400
Zn318      Zn  0.38213922  0.15706099  0.83870606     1.49100
Zn319      Zn  0.33284211  0.15448936  0.88910395     1.49500
O320        O  0.34159551  0.14561860  0.84782551    -1.84000
O321        O  0.28876499  0.14229667  0.79978460    -0.74700
O322        O  0.37416416  0.08499991  0.82416034    -0.74500
O323        O  0.38311394  0.18907063  0.80785265    -0.74000
O324        O  0.30556156  0.09676348  0.80695684    -0.74700
O325        O  0.33555536  0.19550663  0.79765470    -0.74300
O326        O  0.40516186  0.12266871  0.82252314    -0.74900
O327        O  0.36892638  0.16977154  0.91005607    -0.74300
O328        O  0.32103474  0.08248580  0.87496846    -0.75000
O329        O  0.40256742  0.17321573  0.87490869    -0.74400
O330        O  0.31756813  0.11796480  0.90858014    -0.74900
O331        O  0.30161789  0.18634348  0.89415283    -0.74800
O332        O  0.28771639  0.19370241  0.84782171    -0.74600
C333        C  0.28791885  0.11480953  0.79460436     0.77200
C334        C  0.39931094  0.09565398  0.81768841     0.77700
C335        C  0.36245593  0.20208268  0.79393145     0.76700
C336        C  0.39453706  0.17722248  0.90149530     0.77000
C337        C  0.31379844  0.09126708  0.90061226     0.78200
C338        C  0.28558059  0.19932458  0.87508842     0.77200
Zn339      Zn  0.32973773  0.82098587  0.17858386     1.49700
Zn340      Zn  0.34248791  0.83424614  0.11183499     1.49400
Zn341      Zn  0.34509178  0.88594721  0.16062496     1.49100
Zn342      Zn  0.39479497  0.83475657  0.16081357     1.49500
O343        O  0.35335598  0.84434776  0.15252085    -1.84000
O344        O  0.29729604  0.80158934  0.15683488    -0.74700
O345        O  0.32727959  0.87053746  0.09056525    -0.74500
O346        O  0.31277143  0.89039547  0.19128250    -0.74000
O347        O  0.30884690  0.80459376  0.10953249    -0.74700
O348        O  0.31035701  0.84501989  0.20959920    -0.74300
O349        O  0.33033165  0.90659795  0.12369137    -0.74900
O350        O  0.41593982  0.87022353  0.17712053    -0.74300
O351        O  0.37789537  0.81701056  0.09116677    -0.75000
O352        O  0.38185447  0.90560244  0.17720888    -0.74400
O353        O  0.41442861  0.82039381  0.12388914    -0.74900
O354        O  0.39962927  0.80104765  0.19016393    -0.74800
O355        O  0.35288741  0.78906748  0.19769642    -0.74600
C356        C  0.29206002  0.79558890  0.13001106     0.77200
C357        C  0.32331111  0.89737794  0.09803399     0.77700
C358        C  0.30287701  0.87201297  0.20996723     0.76700
C359        C  0.40800291  0.89659464  0.18277758     0.77000
C360        C  0.40474161  0.81287376  0.09857623     0.78200
C361        C  0.38023072  0.78428658  0.20136455     0.77200
Zn362      Zn  0.64061260  0.19250610  0.13885333     1.49700
Zn363      Zn  0.62511765  0.12459746  0.12413142     1.49400
Zn364      Zn  0.69164623  0.14523765  0.14056726     1.49100
Zn365      Zn  0.64230494  0.14509987  0.18972132     1.49500
O366        O  0.64971977  0.15151326  0.14801653    -1.84000
O367        O  0.61032246  0.19516365  0.10744161    -0.74700
O368        O  0.65172968  0.09936547  0.09766501    -0.74500
O369        O  0.71199110  0.18214094  0.12684784    -0.74000
O370        O  0.59728080  0.14887382  0.09745942    -0.74700
O371        O  0.67595900  0.21493904  0.12548281    -0.74300
O372        O  0.69685177  0.11493710  0.10941062    -0.74900
O373        O  0.67903223  0.13320603  0.21136734    -0.74300
O374        O  0.60058924  0.09757326  0.15111534    -0.75000
O375        O  0.71353021  0.13243903  0.17715469    -0.74400
O376        O  0.61196260  0.11421813  0.19586156    -0.74900
O377        O  0.62826223  0.18159274  0.20978792    -0.74800
O378        O  0.62613776  0.21465578  0.17410389    -0.74600
C379        C  0.59469859  0.17667247  0.09335022     0.77200
C380        C  0.67966897  0.09881620  0.09418118     0.77700
C381        C  0.70296845  0.20835039  0.12238044     0.76700
C382        C  0.70571561  0.12937161  0.20387696     0.77000
C383        C  0.59762268  0.09688865  0.17912583     0.78200
C384        C  0.62322058  0.20774381  0.20104528     0.77200
C385        C  0.52138914  0.48253112  0.25300384     0.03200
C386        C  0.52127930  0.48195288  0.22203278    -0.12900
C387        C  0.50198279  0.50024236  0.20595203     0.00700
C388        C  0.48304971  0.51947553  0.22115444    -0.11500
C389        C  0.48319520  0.52019388  0.25211494     0.03200
C390        C  0.50192631  0.50127599  0.26780349    -0.10900
H391        H  0.53600198  0.46712961  0.21047638     0.08800
H392        H  0.46834707  0.53391936  0.20895546     0.06300
H393        H  0.50120843  0.50092526  0.29167655     0.06200
C394        C  0.74097515  0.48224582  0.48149219     0.03200
C395        C  0.77200101  0.48309108  0.48122553    -0.12900
C396        C  0.78747078  0.50194239  0.50037241     0.00700
C397        C  0.77166088  0.52007807  0.51981742    -0.11500
C398        C  0.74065522  0.51873269  0.52097337     0.03200
C399        C  0.72562670  0.49976093  0.50172795    -0.10900
H400        H  0.78411249  0.46929528  0.46598004     0.08800
H401        H  0.78355720  0.53502637  0.53418380     0.06300
H402        H  0.70183826  0.49812789  0.50294400     0.06200
Zn403      Zn  0.69166147  0.35627517  0.35715605     1.49700
Zn404      Zn  0.64331651  0.35743082  0.30661651     1.49400
Zn405      Zn  0.64188709  0.30838880  0.35506054     1.49100
Zn406      Zn  0.62535918  0.37567983  0.37278428     1.49500
O407        O  0.65021880  0.34983250  0.34818949    -1.84000
O408        O  0.71369909  0.37005103  0.32187673    -0.74700
O409        O  0.63087680  0.32123601  0.28474229    -0.74500
O410        O  0.67707189  0.28644297  0.36945632    -0.74000
O411        O  0.67974397  0.37208337  0.28676129    -0.74700
O412        O  0.71231109  0.31990130  0.37140475    -0.74300
O413        O  0.62783117  0.28690688  0.31906475    -0.74900
O414        O  0.59979566  0.34972215  0.39966767    -0.74300
O415        O  0.61134366  0.38670043  0.30104310    -0.75000
O416        O  0.61211144  0.30419714  0.38579107    -0.74400
O417        O  0.59851421  0.40103227  0.34617695    -0.74900
O418        O  0.65138769  0.40256287  0.39884549    -0.74800
O419        O  0.69635249  0.38616253  0.38831141    -0.74600
C420        C  0.70630559  0.37517404  0.29533737     0.77200
C421        C  0.62541342  0.29484429  0.29233079     0.77700
C422        C  0.70359555  0.29355155  0.37485582     0.76700
C423        C  0.59737530  0.32169537  0.40178565     0.77000
C424        C  0.59555755  0.40216508  0.31816124     0.78200
C425        C  0.67931888  0.40289876  0.40281704     0.77200
C426        C  0.48225512  0.25476967  0.51452594     0.03200
C427        C  0.48143748  0.22376904  0.51286983    -0.12900
C428        C  0.50063437  0.20831363  0.49415190     0.00700
C429        C  0.52037636  0.22423906  0.47651286    -0.11500
C430        C  0.52165185  0.25517214  0.47830481     0.03200
C431        C  0.50282894  0.27011192  0.49756406    -0.10900
H432        H  0.46609064  0.21159739  0.52641139     0.08800
H433        H  0.53429248  0.21253207  0.46110910     0.06300
H434        H  0.50451538  0.29386864  0.49952143     0.06200
C435        C  0.48044890  0.74223205  0.48007943     0.03200
C436        C  0.49994231  0.72601489  0.49781636    -0.12900
C437        C  0.51856474  0.74027619  0.51796548     0.00700
C438        C  0.51812619  0.77125356  0.51962507    -0.11500
C439        C  0.49910317  0.78785478  0.50159133     0.03200
C440        C  0.47981726  0.77312436  0.48226273    -0.10900
H441        H  0.50065764  0.70221328  0.49576590     0.08800
H442        H  0.53248694  0.78249500  0.53510611     0.06300
H443        H  0.46496332  0.78570033  0.46829950     0.06200
Zn444      Zn  0.32576668  0.67243580  0.32286383     1.49700
Zn445      Zn  0.39095272  0.65582612  0.33971437     1.49400
Zn446      Zn  0.33986307  0.65592331  0.38928851     1.49100
Zn447      Zn  0.33989620  0.60633225  0.33822361     1.49500
O448        O  0.34932674  0.64737732  0.34786271    -1.84000
O449        O  0.34981401  0.69342394  0.29279509    -0.74700
O450        O  0.41106514  0.67290825  0.37568801    -0.74500
O451        O  0.30904303  0.68860932  0.39326632    -0.74000
O452        O  0.39609549  0.68523177  0.30645413    -0.74700
O453        O  0.30552417  0.70294171  0.34660139    -0.74300
O454        O  0.37606531  0.67210057  0.40981634    -0.74900
O455        O  0.32553852  0.58507278  0.37443321    -0.74300
O456        O  0.41137045  0.61930891  0.32508099    -0.75000
O457        O  0.32453963  0.61911859  0.40972441    -0.74400
O458        O  0.37547577  0.58626272  0.32110580    -0.74900
O459        O  0.30677199  0.60266448  0.30810683    -0.74800
O460        O  0.29487087  0.64969696  0.30142892    -0.74600
C461        C  0.37729639  0.69745121  0.28950568     0.77200
C462        C  0.40209194  0.67867541  0.40165037     0.77700
C463        C  0.29942322  0.70635431  0.37367879     0.76700
C464        C  0.31969848  0.59286225  0.40077364     0.77000
C465        C  0.40209337  0.59405168  0.31695926     0.78200
C466        C  0.29035244  0.62244289  0.29675467     0.77200
C467        C  0.25664270  0.47306738  0.51302997     0.03200
C468        C  0.22562245  0.47325717  0.51323148    -0.12900
C469        C  0.20967192  0.49280229  0.49507625     0.00700
C470        C  0.22507913  0.51169968  0.47607887    -0.11500
C471        C  0.25605449  0.51164429  0.47565471     0.03200
C472        C  0.27163025  0.49269301  0.49454760    -0.10900
H473        H  0.21393843  0.45821582  0.52754464     0.08800
H474        H  0.21295643  0.52699466  0.46221036     0.06300
H475        H  0.29552059  0.49312234  0.49477995     0.06200
C476        C  0.51641291  0.51786522  0.74030455     0.03200
C477        C  0.51524558  0.51688830  0.77130570    -0.12900
C478        C  0.49611372  0.49734901  0.78566479     0.00700
C479        C  0.47747577  0.47928682  0.76883906    -0.11500
C480        C  0.47907976  0.47941055  0.73793616     0.03200
C481        C  0.49824396  0.49894950  0.72388705    -0.10900
H482        H  0.52889912  0.53152613  0.78435846     0.08800
H483        H  0.46216987  0.46473328  0.77984614     0.06300
H484        H  0.49958403  0.49879667  0.70004731     0.06200
Zn485      Zn  0.37425702  0.36921387  0.62169540     1.49700
Zn486      Zn  0.35929697  0.30318803  0.64243679     1.49400
Zn487      Zn  0.35930629  0.35391631  0.68926081     1.49100
Zn488      Zn  0.30824554  0.35130327  0.64180118     1.49500
O489        O  0.35032697  0.34473139  0.64840287    -1.84000
O490        O  0.40048979  0.34276250  0.59578710    -0.74700
O491        O  0.37072388  0.28203159  0.67961654    -0.74500
O492        O  0.39129165  0.38316025  0.69201917    -0.74000
O493        O  0.39112082  0.29806507  0.61349537    -0.74700
O494        O  0.40077493  0.39691635  0.64592053    -0.74300
O495        O  0.37082657  0.31830978  0.71226263    -0.74900
O496        O  0.28784009  0.36391563  0.67930435    -0.74300
O497        O  0.32431980  0.28153837  0.62721721    -0.75000
O498        O  0.32444651  0.36941700  0.71114718    -0.74400
O499        O  0.28794114  0.31425021  0.62719203    -0.74900
O500        O  0.30236211  0.38322110  0.61191302    -0.74800
O501        O  0.34723456  0.39451597  0.59568650    -0.74600
C502        C  0.40507370  0.31491892  0.59618023     0.77200
C503        C  0.37351435  0.29117027  0.70592745     0.77700
C504        C  0.40518612  0.39895122  0.67367454     0.76700
C505        C  0.29714886  0.37058386  0.70500030     0.77000
C506        C  0.29741118  0.28813020  0.62289955     0.78200
C507        C  0.31929195  0.39808390  0.59531994     0.77200
Zn508      Zn  0.69113551  0.64163941  0.64760558     1.49700
Zn509      Zn  0.63925209  0.64577051  0.69368360     1.49400
Zn510      Zn  0.64401393  0.69265985  0.64305921     1.49100
Zn511      Zn  0.62450277  0.62626889  0.62738064     1.49500
O512        O  0.64955443  0.65128689  0.65262906    -1.84000
O513        O  0.71027792  0.62896966  0.68546851    -0.74700
O514        O  0.62370040  0.68256570  0.71242549    -0.74500
O515        O  0.68161709  0.71258496  0.63229718    -0.74000
O516        O  0.67434362  0.63461107  0.71766527    -0.74700
O517        O  0.71473706  0.67682615  0.63446286    -0.74300
O518        O  0.62829126  0.71574898  0.67706434    -0.74900
O519        O  0.59955074  0.65197584  0.60001111    -0.74300
O520        O  0.60980358  0.61406606  0.69822856    -0.75000
O521        O  0.61614512  0.69708474  0.60984863    -0.74400
O522        O  0.59724603  0.60075500  0.65268839    -0.74900
O523        O  0.65050109  0.59929649  0.60210383    -0.74800
O524        O  0.69578627  0.60949734  0.61826105    -0.74600
C525        C  0.70103158  0.62869121  0.71186148     0.77200
C526        C  0.62168752  0.70901028  0.70338814     0.77700
C527        C  0.70812379  0.70377995  0.63024222     0.76700
C528        C  0.59969890  0.67972764  0.59525922     0.77000
C529        C  0.59473796  0.59833394  0.68060519     0.78200
C530        C  0.67836849  0.59512505  0.60160020     0.77200
C531        C  0.24339570  0.02590818  0.50983059     0.03200
C532        C  0.27440089  0.02648290  0.51020313    -0.12900
C533        C  0.29065519  0.00786168  0.49151961     0.00700
C534        C  0.27548546  0.98817070  0.47300339    -0.11500
C535        C  0.24455567  0.98799974  0.47212842     0.03200
C536        C  0.22868603  0.00710507  0.49031042    -0.10900
H537        H  0.28583418  0.04111306  0.52527040     0.08800
H538        H  0.28766970  0.97256525  0.45967676     0.06300
H539        H  0.20480297  0.00624746  0.49034408     0.06200
C540        C  0.75785436  0.01265813  0.47817620     0.03200
C541        C  0.72689462  0.01335122  0.47950582    -0.12900
C542        C  0.71155036  0.99480531  0.49891525     0.00700
C543        C  0.72768123  0.97641056  0.51809259    -0.11500
C544        C  0.75872558  0.97623452  0.51772676     0.03200
C545        C  0.77351793  0.99398746  0.49732583    -0.10900
H546        H  0.71467724  0.02894168  0.46609725     0.08800
H547        H  0.71607178  0.96221869  0.53330608     0.06300
H548        H  0.79740314  0.99393780  0.49692630     0.06200
C549        C  0.01828164  0.24711627  0.52231138     0.03200
C550        C  0.99839022  0.23125186  0.50480197    -0.12900
C551        C  0.97891802  0.24585238  0.48560163     0.00700
C552        C  0.97865167  0.27692560  0.48512834    -0.11500
C553        C  0.99803304  0.29313436  0.50314414     0.03200
C554        C  0.01810025  0.27807294  0.52142121    -0.10900
H555        H  0.99820775  0.20738667  0.50610919     0.08800
H556        H  0.96368410  0.28852933  0.47046756     0.06300
H557        H  0.03317652  0.29042352  0.53528411     0.06200
C558        C  0.02365958  0.98552194  0.25910826     0.03200
C559        C  0.00451772  0.00265780  0.27625310    -0.12900
C560        C  0.98446586  0.02208922  0.26282153     0.00700
C561        C  0.98423499  0.02491383  0.23192169    -0.11500
C562        C  0.00336650  0.00789669  0.21445108     0.03200
C563        C  0.02294458  0.98819698  0.22834929    -0.10900
H564        H  0.00468855  0.00030312  0.30002128     0.08800
H565        H  0.96876666  0.03991613  0.22150394     0.06300
H566        H  0.03777791  0.97490006  0.21519554     0.06200
C567        C  0.02428564  0.76055278  0.48258748     0.03200
C568        C  0.02327819  0.72962681  0.48301866    -0.12900
C569        C  0.00381253  0.71491450  0.50180328     0.00700
C570        C  0.98540539  0.73137484  0.52042088    -0.11500
C571        C  0.98604650  0.76248233  0.52008366     0.03200
C572        C  0.00543419  0.77682600  0.50082731    -0.10900
H573        H  0.03730811  0.71700613  0.46841445     0.08800
H574        H  0.97050149  0.71992817  0.53504950     0.06300
H575        H  0.00564458  0.80069358  0.49967030     0.06200
Zn576      Zn  0.11426345  0.83921015  0.33818350     1.49700
Zn577      Zn  0.16395327  0.88967818  0.33746086     1.49400
Zn578      Zn  0.16500470  0.83934268  0.38842726     1.49100
Zn579      Zn  0.18070013  0.82424939  0.32259357     1.49500
O580        O  0.15573725  0.84833653  0.34693307    -1.84000
O581        O  0.09350920  0.87453183  0.32037272    -0.74700
O582        O  0.17745177  0.91083259  0.37386637    -0.74500
O583        O  0.12900019  0.82381949  0.40900468    -0.74000
O584        O  0.12780920  0.90943716  0.32054634    -0.74700
O585        O  0.09346454  0.82569040  0.37517257    -0.74300
O586        O  0.17927656  0.87623585  0.40858312    -0.74900
O587        O  0.20934329  0.80181255  0.34656344    -0.74300
O588        O  0.19719398  0.89433775  0.30785023    -0.75000
O589        O  0.19800350  0.80894064  0.39344749    -0.74400
O590        O  0.20578245  0.84770237  0.29562899    -0.74900
O591        O  0.15739339  0.79496336  0.29998979    -0.74800
O592        O  0.11045870  0.80560906  0.30904134    -0.74600
C593        C  0.10177607  0.90071201  0.31452649     0.77200
C594        C  0.18364415  0.90262444  0.40002403     0.77700
C595        C  0.10228568  0.81966307  0.40122165     0.76700
C596        C  0.21405320  0.79720761  0.37373162     0.77000
C597        C  0.21123214  0.87501393  0.29318079     0.78200
C598        C  0.13005099  0.78998060  0.29652315     0.77200
Zn599      Zn  0.87386286  0.12712450  0.37894843     1.49700
Zn600      Zn  0.80755414  0.14182885  0.35801460     1.49400
Zn601      Zn  0.85444646  0.19322522  0.35995677     1.49100
Zn602      Zn  0.85844827  0.14335713  0.31119694     1.49500
O603        O  0.84896749  0.15119528  0.35234856    -1.84000
O604        O  0.84751933  0.10017949  0.40439406    -0.74700
O605        O  0.78495670  0.17633298  0.37349659    -0.74500
O606        O  0.88375155  0.19921323  0.39206310    -0.74000
O607        O  0.80272266  0.10867963  0.38594906    -0.74700
O608        O  0.89862444  0.15436119  0.40571130    -0.74300
O609        O  0.81711587  0.21286001  0.37309486    -0.74900
O610        O  0.87382938  0.17936845  0.29079953    -0.74300
O611        O  0.78724002  0.13090117  0.32038900    -0.75000
O612        O  0.86804817  0.21492973  0.32367745    -0.74400
O613        O  0.82282752  0.13165710  0.28741365    -0.74900
O614        O  0.88842546  0.11141326  0.30809926    -0.74800
O615        O  0.90152044  0.10080258  0.35431636    -0.74600
C616        C  0.81983490  0.09489275  0.40340610     0.77200
C617        C  0.79115639  0.20334986  0.37740583     0.77700
C618        C  0.89942605  0.18245452  0.40825453     0.76700
C619        C  0.87499190  0.20649012  0.29787004     0.77000
C620        C  0.79585562  0.12818937  0.29393111     0.78200
C621        C  0.90404299  0.09703653  0.32650079     0.77200
C622        C  0.02018777  0.02176629  0.74833050     0.03200
C623        C  0.00207503  0.00216305  0.73291279    -0.12900
C624        C  0.98136052  0.98483227  0.74770858     0.00700
C625        C  0.97992984  0.98653250  0.77871565    -0.11500
C626        C  0.99893739  0.00526107  0.79470821     0.03200
C627        C  0.01911568  0.02281221  0.77917462    -0.10900
H628        H  0.00445792  0.00031403  0.70925032     0.08800
H629        H  0.96397457  0.97330911  0.79044868     0.06300
H630        H  0.03413097  0.03717517  0.79098268     0.06200
Zn631      Zn  0.87744407  0.87559349  0.62967061     1.49700
Zn632      Zn  0.81048194  0.85791489  0.64844957     1.49400
Zn633      Zn  0.85992721  0.80867981  0.64366081     1.49100
Zn634      Zn  0.86140416  0.85443336  0.69579964     1.49500
O635        O  0.85248441  0.84959554  0.65410864    -1.84000
O636        O  0.85058401  0.90086092  0.60294548    -0.74700
O637        O  0.78803968  0.82139877  0.63602216    -0.74500
O638        O  0.88785440  0.80536873  0.61057337    -0.74000
O639        O  0.80532210  0.88869740  0.61752719    -0.74700
O640        O  0.90435928  0.85076524  0.60258638    -0.74300
O641        O  0.82320205  0.78775000  0.63218310    -0.74900
O642        O  0.87670190  0.81727550  0.71428014    -0.74300
O643        O  0.79074186  0.87196909  0.68567688    -0.75000
O644        O  0.87625564  0.78530872  0.67738759    -0.74400
O645        O  0.82588215  0.86656978  0.71923661    -0.74900
O646        O  0.89174161  0.88503508  0.70126607    -0.74800
O647        O  0.90308779  0.90205552  0.65678578    -0.74600
C648        C  0.82253872  0.90342154  0.60113257     0.77200
C649        C  0.79619743  0.79503787  0.63077078     0.77700
C650        C  0.90447869  0.82313206  0.59690886     0.76700
C651        C  0.88096841  0.79143365  0.70432221     0.77000
C652        C  0.79941010  0.87298983  0.71236103     0.78200
C653        C  0.90640617  0.90218265  0.68483799     0.77200
Zn654      Zn  0.17893988  0.17047692  0.67424490     1.49700
Zn655      Zn  0.15981741  0.10622766  0.65643219     1.49400
Zn656      Zn  0.11152732  0.15856436  0.66048401     1.49100
Zn657      Zn  0.15958964  0.15904928  0.60872134     1.49500
O658        O  0.15213291  0.14834794  0.64978442    -1.84000
O659        O  0.20054228  0.14473798  0.70235598    -0.74700
O660        O  0.12389034  0.08688838  0.67371914    -0.74500
O661        O  0.11029907  0.19066629  0.69162551    -0.74000
O662        O  0.19189353  0.09909870  0.68686169    -0.74700
O663        O  0.15782518  0.20088479  0.69756944    -0.74300
O664        O  0.09099909  0.12312602  0.67777018    -0.74900
O665        O  0.12340887  0.17647260  0.58989445    -0.74300
O666        O  0.17316799  0.08660355  0.61887865    -0.75000
O667        O  0.08950266  0.17496705  0.62498022    -0.74400
O668        O  0.17308072  0.12326864  0.58635048    -0.74900
O669        O  0.19204674  0.18942074  0.60454152    -0.74800
O670        O  0.20876424  0.19164248  0.65053626    -0.74600
C671        C  0.20461513  0.11710405  0.70417565     0.77200
C672        C  0.09891311  0.09647577  0.68222739     0.77700
C673        C  0.13088285  0.20587638  0.70313516     0.76700
C674        C  0.09737875  0.18173811  0.59889119     0.77000
C675        C  0.17808792  0.09645101  0.59304689     0.78200
C676        C  0.21048679  0.19872748  0.62355084     0.77200
C677        C  0.07061968  0.03615790  0.73317173    -0.26200
C678        C  0.04020317  0.04119384  0.73179075    -0.14300
C679        C  0.02911559  0.06441687  0.71420767     0.36300
C680        C  0.04854170  0.08184034  0.69800551    -0.25700
C681        C  0.07906075  0.07663638  0.69883933    -0.14900
C682        C  0.09027063  0.05376858  0.71706199     0.37400
N683        N  0.12150978  0.04898061  0.71981299    -0.89200
H684        H  0.07901270  0.01847084  0.74693905     0.18500
H685        H  0.03966187  0.09959332  0.68463444     0.18500
N686        N  0.99827085  0.07119337  0.71294939    -0.88200
H687        H  0.12594590  0.03113500  0.73375025     0.35900
H688        H  0.13052160  0.06758331  0.73004281     0.41000
H689        H  0.99087011  0.07506088  0.73448434     0.40600
H690        H  0.98703844  0.05311273  0.70442695     0.35500
C691        C  0.95889856  0.93511141  0.74139318    -0.26200
C692        C  0.96232982  0.96394757  0.73083984    -0.14300
C693        C  0.94826989  0.97198699  0.70408637     0.36300
C694        C  0.93128436  0.95119576  0.68854244    -0.25700
C695        C  0.92736743  0.92259235  0.69952395    -0.14900
C696        C  0.94169659  0.91438566  0.72611897     0.37400
N697        N  0.93889747  0.88490833  0.73748172    -0.89200
H698        H  0.97008038  0.92852893  0.76150324     0.18500
H699        H  0.92014245  0.95785212  0.66842771     0.18500
N700        N  0.95022917  0.00153047  0.69312414    -0.88200
H701        H  0.95044313  0.88258766  0.75735848     0.35900
H702        H  0.94882896  0.87059915  0.72242979     0.41000
H703        H  0.92888691  0.01011261  0.69136770     0.40600
H704        H  0.95922345  0.00068224  0.67197748     0.35500
C705        C  0.09335742  0.79040641  0.44674637    -0.26200
C706        C  0.08159741  0.80621612  0.42269406    -0.14300
C707        C  0.05059024  0.80751159  0.41900664     0.36300
C708        C  0.03235364  0.79243309  0.43892885    -0.25700
C709        C  0.04434730  0.77607779  0.46231287    -0.14900
C710        C  0.07516497  0.77531536  0.46635921     0.37400
N711        N  0.08855592  0.75973786  0.49043734    -0.89200
H712        H  0.11699425  0.78913758  0.45006029     0.18500
H713        H  0.00862713  0.79324992  0.43613775     0.18500
N714        N  0.03766325  0.82410275  0.39521870    -0.88200
H715        H  0.08338707  0.73737019  0.48857885     0.35900
H716        H  0.07971200  0.76776434  0.51008975     0.41000
H717        H  0.04244642  0.84635050  0.39890372     0.40600
H718        H  0.01470048  0.82225996  0.39538841     0.35500
C719        C  0.93547855  0.77188839  0.53882178    -0.26200
C720        C  0.96531623  0.77985282  0.53867400    -0.14300
C721        C  0.97470028  0.80403253  0.55610779     0.36300
C722        C  0.95403885  0.81937072  0.57349361    -0.25700
C723        C  0.92449524  0.81043664  0.57452570    -0.14900
C724        C  0.91503540  0.78678211  0.55654130     0.37400
N725        N  0.88464973  0.77780485  0.55652940    -0.89200
H726        H  0.92806758  0.75382442  0.52503577     0.18500
H727        H  0.96134056  0.83727576  0.58753903     0.18500
N728        N  0.00528622  0.81218728  0.55703179    -0.88200
H729        H  0.88137394  0.75988160  0.54239427     0.35900
H730        H  0.87216122  0.79527559  0.54803039     0.41000
H731        H  0.01699657  0.79458351  0.56634305     0.40600
H732        H  0.00849300  0.83030449  0.57092329     0.35500
C733        C  0.97499884  0.06031129  0.30110468    -0.26200
C734        C  0.96374683  0.03939191  0.28122322    -0.14300
C735        C  0.93294739  0.03535896  0.27927096     0.36300
C736        C  0.91415525  0.05354002  0.29556398    -0.25700
C737        C  0.92527517  0.07551252  0.31436856    -0.14900
C738        C  0.95622282  0.07855318  0.31763116     0.37400
N739        N  0.96948536  0.10082481  0.33591821    -0.89200
H740        H  0.99863639  0.06323230  0.30301599     0.18500
H741        H  0.89053040  0.05089200  0.29305832     0.18500
N742        N  0.92016347  0.01266187  0.26136513    -0.88200
H743        H  0.98121505  0.09007513  0.35263641     0.35900
H744        H  0.95380719  0.11410293  0.34620463     0.41000
H745        H  0.92923164  0.99242881  0.26774862     0.40600
H746        H  0.92545712  0.01650749  0.23933462     0.35500
C747        C  0.04141062  0.93403142  0.26599814    -0.26200
C748        C  0.04381158  0.96400002  0.27325144    -0.14300
C749        C  0.06530607  0.97309529  0.29380913     0.36300
C750        C  0.08363856  0.95190337  0.30717142    -0.25700
C751        C  0.08097137  0.92176207  0.30041886    -0.14900
C752        C  0.05955329  0.91285440  0.27937323     0.37400
N753        N  0.05622411  0.88273432  0.27042117    -0.89200
H754        H  0.02507894  0.92700739  0.24996505     0.18500
H755        H  0.10013385  0.95898913  0.32299159     0.18500
N756        N  0.06869186  0.00385597  0.30067804    -0.88200
H757        H  0.04960972  0.87024954  0.28854755     0.35900
H758        H  0.07653910  0.87491082  0.26291916     0.41000
H759        H  0.07545725  0.01456058  0.28147698     0.40600
H760        H  0.08548357  0.00687505  0.31625300     0.35500
C761        C  0.02732120  0.21458912  0.56538073    -0.26200
C762        C  0.03880240  0.23087468  0.54185673    -0.14300
C763        C  0.06932826  0.22977848  0.53624391     0.36300
C764        C  0.08779891  0.21323519  0.55472879    -0.25700
C765        C  0.07651443  0.19738536  0.57885349    -0.14900
C766        C  0.04581444  0.19788876  0.58386530     0.37400
N767        N  0.03316921  0.18111081  0.60732305    -0.89200
H768        H  0.00378800  0.21477410  0.56936687     0.18500
H769        H  0.11123597  0.21308286  0.55027660     0.18500
N770        N  0.08200805  0.24453840  0.51146181    -0.88200
H771        H  0.01793062  0.16641865  0.59816648     0.35900
H772        H  0.02175110  0.19561941  0.62107763     0.41000
H773        H  0.07799264  0.26728875  0.51349475     0.40600
H774        H  0.07165177  0.23702934  0.49242314     0.35500
C775        C  0.92869149  0.23617849  0.46526452    -0.26200
C776        C  0.95865663  0.22854706  0.46636965    -0.14300
C777        C  0.96883493  0.20447872  0.44927919     0.36300
C778        C  0.94875463  0.18845776  0.43178737    -0.25700
C779        C  0.91901124  0.19667572  0.43016130    -0.14900
C780        C  0.90880575  0.22060132  0.44728911     0.37400
N781        N  0.87822133  0.22897296  0.44631120    -0.89200
H782        H  0.92074516  0.25433889  0.47858489     0.18500
H783        H  0.95660422  0.17043454  0.41822577     0.18500
N784        N  0.99965635  0.19704532  0.44890810    -0.88200
H785        H  0.87432283  0.24711833  0.46001389     0.35900
H786        H  0.86602704  0.21145951  0.45484364     0.41000
H787        H  0.01093096  0.21492091  0.43970313     0.40600
H788        H  0.00348678  0.17898379  0.43519755     0.35500
C789        C  0.79863353  0.93969980  0.52939578    -0.26200
C790        C  0.77596264  0.95841048  0.53931454    -0.14300
C791        C  0.77047972  0.96055718  0.56982242     0.36300
C792        C  0.78664449  0.94289637  0.58955291    -0.25700
C793        C  0.80880375  0.92375937  0.57962989    -0.14900
C794        C  0.81507582  0.92224213  0.54927391     0.37400
N795        N  0.83730773  0.90229842  0.53868709    -0.89200
H796        H  0.80300015  0.93818111  0.50599633     0.18500
H797        H  0.78192447  0.94401444  0.61291402     0.18500
N798        N  0.74873360  0.98089531  0.58068038    -0.88200
H799        H  0.83918762  0.90388136  0.51578776     0.35900
H800        H  0.83026525  0.88083065  0.54316972     0.41000
H801        H  0.75587626  0.00219573  0.57562240     0.40600
H802        H  0.74738410  0.97973740  0.60364448     0.35500
C803        C  0.79571922  0.05161505  0.47076594    -0.26200
C804        C  0.77426606  0.03287662  0.45842754    -0.14300
C805        C  0.76965323  0.03330849  0.42758242     0.36300
C806        C  0.78545175  0.05314335  0.41018793    -0.25700
C807        C  0.80636803  0.07234025  0.42259852    -0.14900
C808        C  0.81180065  0.07138776  0.45317814     0.37400
N809        N  0.83285513  0.09107511  0.46636574    -0.89200
H810        H  0.79948881  0.05122734  0.49436121     0.18500
H811        H  0.78131399  0.05360641  0.38664190     0.18500
N812        N  0.74998046  0.01322729  0.41311425    -0.88200
H813        H  0.83433122  0.08741593  0.48907674     0.35900
H814        H  0.82491928  0.11257227  0.46364000     0.41000
H815        H  0.72841040  0.01751384  0.41977985     0.40600
H816        H  0.75568000  0.99173281  0.41918709     0.35500
C817        C  0.20472578  0.06329082  0.52077928    -0.26200
C818        C  0.22603251  0.04331782  0.53113606    -0.14300
C819        C  0.22944698  0.03886689  0.56167475     0.36300
C820        C  0.21256812  0.05570511  0.58134379    -0.25700
C821        C  0.19229363  0.07690822  0.57111472    -0.14900
C822        C  0.18800415  0.08023797  0.54033053     0.37400
N823        N  0.16654409  0.10011708  0.52820963    -0.89200
H824        H  0.20141777  0.06607339  0.49726978     0.18500
H825        H  0.21590502  0.05281082  0.60482640     0.18500
N826        N  0.24993258  0.01714236  0.57253509    -0.88200
H827        H  0.17263863  0.12177254  0.53312991     0.35900
H828        H  0.14610971  0.09561942  0.53770375     0.41000
H829        H  0.24257771  0.99648125  0.56543322     0.40600
H830        H  0.24985555  0.01662630  0.59556699     0.35500
C831        C  0.23292465  0.93630746  0.45897935    -0.26200
C832        C  0.22855636  0.96643354  0.45376379    -0.14300
C833        C  0.20842570  0.97564808  0.43188379     0.36300
C834        C  0.19313400  0.95437273  0.41539777    -0.25700
C835        C  0.19776071  0.92408187  0.42020053    -0.14900
C836        C  0.21789036  0.91495245  0.44235853     0.37400
N837        N  0.22373956  0.88416422  0.44737077    -0.89200
H838        H  0.24830924  0.92946539  0.47602029     0.18500
H839        H  0.17786939  0.96149215  0.39837243     0.18500
N840        N  0.20401230  0.00654452  0.42620113    -0.88200
H841        H  0.23853595  0.88135114  0.46487935     0.35900
H842        H  0.23425603  0.87592061  0.42862759     0.41000
H843        H  0.22390352  0.01504211  0.41839489     0.40600
H844        H  0.18842613  0.00962224  0.40942800     0.35500
C845        C  0.72348843  0.75517699  0.61818827    -0.26200
C846        C  0.73160989  0.72592017  0.62484493    -0.14300
C847        C  0.76171371  0.71932578  0.62942065     0.36300
C848        C  0.78248919  0.74208308  0.62934066    -0.25700
C849        C  0.77405491  0.77163794  0.62504771    -0.14900
C850        C  0.74433998  0.77807057  0.61813509     0.37400
N851        N  0.73526406  0.80779090  0.61170481    -0.89200
H852        H  0.70056191  0.76048002  0.61396067     0.18500
H853        H  0.80523593  0.73656580  0.63428354     0.18500
N854        N  0.77132960  0.68982402  0.63554836    -0.88200
H855        H  0.71260344  0.80876148  0.60752031     0.35900
H856        H  0.74569074  0.81413022  0.59222141     0.41000
H857        H  0.78175819  0.68969518  0.65615560     0.40600
H858        H  0.78689307  0.68387067  0.61970489     0.35500
C859        C  0.22716671  0.24673372  0.60353350    -0.26200
C860        C  0.23420469  0.21891630  0.61511219    -0.14300
C861        C  0.26326760  0.21274094  0.62388870     0.36300
C862        C  0.28428204  0.23518418  0.62370685    -0.25700
C863        C  0.27660296  0.26408658  0.61540632    -0.14900
C864        C  0.24820467  0.26954242  0.60356398     0.37400
N865        N  0.24054886  0.29831748  0.59264038    -0.89200
H866        H  0.20474980  0.25125791  0.59648656     0.18500
H867        H  0.30612555  0.23030577  0.63219132     0.18500
N868        N  0.27112999  0.18390205  0.63423792    -0.88200
H869        H  0.21880458  0.29860834  0.58491799     0.35900
H870        H  0.25394574  0.30254054  0.57444678     0.41000
H871        H  0.27910487  0.18585800  0.65580102     0.40600
H872        H  0.28825617  0.17594916  0.62108895     0.35500
C873        C  0.52639960  0.55438989  0.70025947    -0.26200
C874        C  0.53675243  0.53816470  0.72469994    -0.14300
C875        C  0.56653811  0.54082860  0.73319713     0.36300
C876        C  0.58497943  0.56020457  0.71800792    -0.25700
C877        C  0.57465663  0.57649267  0.69375148    -0.14900
C878        C  0.54514268  0.57330532  0.68446455     0.37400
N879        N  0.53397680  0.59017440  0.66000683    -0.89200
H880        H  0.50350608  0.55250029  0.69363481     0.18500
H881        H  0.60771327  0.56239182  0.72514538     0.18500
N882        N  0.57842247  0.52335478  0.75674069    -0.88200
H883        H  0.51143025  0.58633564  0.65704050     0.35900
H884        H  0.54429150  0.58239434  0.64099654     0.41000
H885        H  0.58704829  0.53763279  0.77268002     0.40600
H886        H  0.59578133  0.51072742  0.74839087     0.35500
C887        C  0.44726758  0.40879213  0.70651136    -0.26200
C888        C  0.42683071  0.41975914  0.68596248    -0.14300
C889        C  0.42471260  0.45047886  0.68136330     0.36300
C890        C  0.44204871  0.46957794  0.69842821    -0.25700
C891        C  0.46149053  0.45855875  0.72003643    -0.14900
C892        C  0.46479606  0.42772850  0.72327411     0.37400
N893        N  0.48625711  0.41496700  0.74277490    -0.89200
H894        H  0.44919179  0.38520550  0.70998718     0.18500
H895        H  0.43985661  0.49318108  0.69529924     0.18500
N896        N  0.40433262  0.46284250  0.66053352    -0.88200
H897        H  0.48107255  0.42037967  0.76447264     0.35900
H898        H  0.50694276  0.42366334  0.73771017     0.41000
H899        H  0.38309592  0.45593573  0.66600174     0.40600
H900        H  0.40944601  0.45462710  0.63964699     0.35500
C901        C  0.26853187  0.45688485  0.56382348    -0.26200
C902        C  0.27350322  0.45372543  0.53350556    -0.14300
C903        C  0.29517513  0.43331058  0.52379518     0.36300
C904        C  0.31126753  0.41698567  0.54471987    -0.25700
C905        C  0.30560226  0.41958396  0.57494460    -0.14900
C906        C  0.28442989  0.44041807  0.58467317     0.37400
N907        N  0.27872035  0.44584046  0.61538443    -0.89200
H908        H  0.25242030  0.47280630  0.57146041     0.18500
H909        H  0.32724952  0.40090327  0.53715588     0.18500
N910        N  0.30074371  0.42765222  0.49311186    -0.88200
H911        H  0.28302804  0.46811851  0.61944577     0.35900
H912        H  0.29326244  0.43426421  0.62901838     0.41000
H913        H  0.28602142  0.43893140  0.47947149     0.40600
H914        H  0.29667340  0.40527431  0.48928870     0.35500
C915        C  0.28643502  0.75836372  0.36641653    -0.26200
C916        C  0.28088373  0.73195934  0.38139671    -0.14300
C917        C  0.25560328  0.72964071  0.39926726     0.36300
C918        C  0.23482554  0.75289264  0.39922826    -0.25700
C919        C  0.23903882  0.77780519  0.38137294    -0.14900
C920        C  0.26582211  0.78129130  0.36620729     0.37400
N921        N  0.27116996  0.80752904  0.34925543    -0.89200
H922        H  0.30624266  0.76039698  0.35332199     0.18500
H923        H  0.21428483  0.75044676  0.41103184     0.18500
N924        N  0.25015903  0.70313210  0.41568696    -0.88200
H925        H  0.29169355  0.80643240  0.33893632     0.35900
H926        H  0.27213339  0.82524839  0.36396555     0.41000
H927        H  0.24680529  0.68605397  0.40056824     0.40600
H928        H  0.23067288  0.70512850  0.42772919     0.35500
C929        C  0.28798064  0.54874118  0.40793267    -0.26200
C930        C  0.30522924  0.57121936  0.42061203    -0.14300
C931        C  0.30674747  0.57346990  0.45167508     0.36300
C932        C  0.29040077  0.55379519  0.46914231    -0.25700
C933        C  0.27248578  0.53206411  0.45629477    -0.14900
C934        C  0.27157612  0.52939906  0.42532626     0.37400
N935        N  0.25461155  0.50694637  0.41094526    -0.89200
H936        H  0.28655234  0.54659292  0.38418654     0.18500
H937        H  0.29148070  0.55547838  0.49294398     0.18500
N938        N  0.32493700  0.59551206  0.46539398    -0.88200
H939        H  0.23233922  0.51012524  0.41589963     0.35900
H940        H  0.26123034  0.48645758  0.41913566     0.41000
H941        H  0.34683156  0.59062592  0.46022991     0.40600
H942        H  0.32330816  0.59435223  0.48834720     0.35500
C943        C  0.56888916  0.73194751  0.53796675    -0.26200
C944        C  0.53936234  0.72299973  0.53651754    -0.14300
C945        C  0.53022461  0.69808554  0.55285298     0.36300
C946        C  0.55083037  0.68297530  0.57054596    -0.25700
C947        C  0.57999046  0.69283396  0.57289610    -0.14900
C948        C  0.58927713  0.71722179  0.55601044     0.37400
N949        N  0.61937959  0.72703584  0.55739648    -0.89200
H950        H  0.57606207  0.75063323  0.52498647     0.18500
H951        H  0.54373889  0.66442588  0.58376404     0.18500
N952        N  0.49991993  0.68890459  0.55231987    -0.88200
H953        H  0.62251246  0.74540878  0.54386543     0.35900
H954        H  0.63258453  0.71014791  0.54892695     0.41000
H955        H  0.48736836  0.70580925  0.56167878     0.40600
H956        H  0.49693081  0.67025321  0.56551230     0.35500
C957        C  0.43019811  0.72896148  0.46282327    -0.26200
C958        C  0.46073486  0.72657140  0.45932113    -0.14300
C959        C  0.47217245  0.70843068  0.43684946     0.36300
C960        C  0.45270398  0.69262075  0.41854547    -0.25700
C961        C  0.42201709  0.69453981  0.42231763    -0.14900
C962        C  0.41078747  0.71315161  0.44462968     0.37400
N963        N  0.37966817  0.71672200  0.44847497    -0.89200
H964        H  0.42135692  0.74296447  0.48001883     0.18500
H965        H  0.46154522  0.67874204  0.40126971     0.18500
N966        N  0.50349347  0.70635362  0.43262511    -0.88200
H967        H  0.37452895  0.73905826  0.44583673     0.35900
H968        H  0.37449761  0.71069827  0.47007162     0.41000
H969        H  0.51100717  0.72722564  0.42644357     0.40600
H970        H  0.50833955  0.69209063  0.41520101     0.35500
C971        C  0.45999327  0.26080556  0.56405066    -0.26200
C972        C  0.46271579  0.27109106  0.53509170    -0.14300
C973        C  0.44731002  0.29696030  0.52650690     0.36300
C974        C  0.42972742  0.31192129  0.54721072    -0.25700
C975        C  0.42651379  0.30106360  0.57594183    -0.14900
C976        C  0.44204690  0.27535925  0.58437919     0.37400
N977        N  0.43994469  0.26406385  0.61378161    -0.89200
H978        H  0.47208252  0.24138707  0.57110951     0.18500
H979        H  0.41751320  0.33139161  0.54054166     0.18500
N980        N  0.44888342  0.30747825  0.49666997    -0.88200
H981        H  0.46112995  0.26345465  0.62293474     0.35900
H982        H  0.43211095  0.24242207  0.61257953     0.41000
H983        H  0.43940144  0.29144082  0.48305560     0.40600
H984        H  0.43631849  0.32664830  0.49402241     0.35500
C985        C  0.71651606  0.24058420  0.37933930    -0.26200
C986        C  0.72489340  0.27013900  0.38310831    -0.14300
C987        C  0.75415302  0.27649160  0.39154355     0.36300
C988        C  0.77516057  0.25379485  0.39207656    -0.25700
C989        C  0.76744036  0.22468581  0.38469845    -0.14900
C990        C  0.73733141  0.21773251  0.38031111     0.37400
N991        N  0.72807726  0.18786149  0.37509979    -0.89200
H992        H  0.69385563  0.23527775  0.37394742     0.18500
H993        H  0.79791647  0.25933587  0.39682041     0.18500
N994        N  0.76287889  0.30597292  0.39879027    -0.88200
H995        H  0.70542902  0.18690195  0.37080030     0.35900
H996        H  0.73157058  0.17612295  0.39463323     0.41000
H997        H  0.77977195  0.31218240  0.38451943     0.40600
H998        H  0.77139102  0.30587542  0.42024956     0.35500
C999        C  0.59005760  0.28668556  0.44227304    -0.26200
C1000       C  0.57766278  0.30800226  0.42341536    -0.14300
C1001       C  0.54675302  0.31212482  0.42298459     0.36300
C1002       C  0.52919020  0.29451205  0.44115851    -0.25700
C1003       C  0.54155587  0.27262450  0.45938879    -0.14900
C1004       C  0.57246944  0.26911679  0.46027791     0.37400
N1005       N  0.58669504  0.24857902  0.47972469    -0.89200
H1006       H  0.61372789  0.28330041  0.44260476     0.18500
H1007       H  0.50547650  0.29746893  0.44052509     0.18500
N1008       N  0.53217474  0.33250595  0.40345374    -0.88200
H1009       H  0.58058621  0.22716828  0.47389395     0.35900
H1010       H  0.57972922  0.25279030  0.50122275     0.41000
H1011       H  0.54694305  0.34339513  0.38960594     0.40600
H1012       H  0.52212146  0.34859347  0.41637156     0.35500
C1013       C  0.69879365  0.55283444  0.53235734    -0.26200
C1014       C  0.72363950  0.53693097  0.54224918    -0.14300
C1015       C  0.73159826  0.53821519  0.57231778     0.36300
C1016       C  0.71581207  0.55676720  0.59133725    -0.25700
C1017       C  0.69166805  0.57344719  0.58125535    -0.14900
C1018       C  0.68267683  0.57106545  0.55156695     0.37400
N1019       N  0.65799815  0.58791919  0.54078664    -0.89200
H1020       H  0.69245514  0.55169033  0.50933398     0.18500
H1021       H  0.72244921  0.55831216  0.61426260     0.18500
N1022       N  0.75549174  0.52049905  0.58349086    -0.88200
H1023       H  0.65417085  0.58344081  0.51848015     0.35900
H1024       H  0.66360582  0.61021935  0.54215143     0.41000
H1025       H  0.74951774  0.49839061  0.58103328     0.40600
H1026       H  0.75851677  0.52407448  0.60607950     0.35500
C1027       C  0.73229565  0.43235297  0.46037400    -0.26200
C1028       C  0.72441449  0.46221444  0.46153818    -0.14300
C1029       C  0.70044002  0.47234396  0.44423907     0.36300
C1030       C  0.68481961  0.45249845  0.42619487    -0.25700
C1031       C  0.69317420  0.42276288  0.42465929    -0.14900
C1032       C  0.71697502  0.41265120  0.44214946     0.37400
N1033       N  0.72546468  0.38218935  0.44167907    -0.89200
H1034       H  0.75032849  0.42418774  0.47387108     0.18500
H1035       H  0.66694124  0.46060606  0.41246852     0.18500
N1036       N  0.69261105  0.50296431  0.44411098    -0.88200
H1037       H  0.72387807  0.37391523  0.46311082     0.35900
H1038       H  0.74754153  0.38093666  0.43530432     0.41000
H1039       H  0.67058166  0.50479300  0.45049524     0.40600
H1040       H  0.69430895  0.51074900  0.42250390     0.35500
C1041       C  0.43244614  0.53439455  0.26613856    -0.26200
C1042       C  0.46277166  0.53954565  0.26843159    -0.14300
C1043       C  0.47311360  0.56235601  0.28694657     0.36300
C1044       C  0.45302383  0.57922548  0.30301259    -0.25700
C1045       C  0.42252914  0.57408547  0.30101533    -0.14900
C1046       C  0.41212239  0.55151655  0.28200436     0.37400
N1047       N  0.38105683  0.54643457  0.27821555    -0.89200
H1048       H  0.42462379  0.51693117  0.25180415     0.18500
H1049       H  0.46141662  0.59669032  0.31701041     0.18500
N1050       N  0.50379261  0.56950391  0.28914805    -0.88200
H1051       H  0.37731842  0.52855100  0.26416996     0.35900
H1052       H  0.37215559  0.56493597  0.26761427     0.41000
H1053       H  0.51171763  0.57375775  0.26797613     0.40600
H1054       H  0.51518066  0.55146810  0.29786204     0.35500
C1055       C  0.53650391  0.43202258  0.26699021    -0.26200
C1056       C  0.54062232  0.46247007  0.27025137    -0.14300
C1057       C  0.56160635  0.47292556  0.29105350     0.36300
C1058       C  0.57752926  0.45257077  0.30816853    -0.25700
C1059       C  0.57387518  0.42214493  0.30436382    -0.14900
C1060       C  0.55270535  0.41170722  0.28378865     0.37400
N1061       N  0.54694156  0.38080511  0.27938879    -0.89200
H1062       H  0.52018089  0.42392328  0.25146002     0.18500
H1063       H  0.59415637  0.46060866  0.32340109     0.18500
N1064       N  0.56815738  0.50375898  0.29473187    -0.88200
H1065       H  0.52477637  0.37715263  0.28435272     0.35900
H1066       H  0.55892898  0.36769644  0.29408440     0.41000
H1067       H  0.55684043  0.51679294  0.27949918     0.40600
H1068       H  0.59049653  0.50666858  0.28999973     0.35500
C1069       C  0.74380863  0.11989840  0.27827145    -0.26200
C1070       C  0.77357833  0.12280001  0.27036525    -0.14300
C1071       C  0.78085286  0.12337226  0.24015073     0.36300
C1072       C  0.75837541  0.12360533  0.21883533    -0.25700
C1073       C  0.72848442  0.12321059  0.22683817    -0.14900
C1074       C  0.72123031  0.11991080  0.25697861     0.37400
N1075       N  0.69102530  0.11749801  0.26610144    -0.89200
H1076       H  0.73789455  0.11863439  0.30132620     0.18500
H1077       H  0.76452325  0.12544752  0.19587620     0.18500
N1078       N  0.81093498  0.12472827  0.23083491    -0.88200
H1079       H  0.68954821  0.11619387  0.28904969     0.35900
H1080       H  0.68290955  0.09755999  0.25785799     0.41000
H1081       H  0.81366013  0.14387447  0.21832212     0.40600
H1082       H  0.81503000  0.10658392  0.21721816     0.35500
C1083       C  0.61841823  0.28180296  0.23952585    -0.26200
C1084       C  0.61799905  0.27287819  0.26918281    -0.14300
C1085       C  0.61344276  0.24278609  0.27568320     0.36300
C1086       C  0.61257386  0.22214037  0.25275553    -0.25700
C1087       C  0.61629420  0.23075166  0.22325341    -0.14900
C1088       C  0.61751120  0.26118923  0.21648527     0.37400
N1089       N  0.61941830  0.27113331  0.18646809    -0.89200
H1090       H  0.62092221  0.30493112  0.23415483     0.18500
H1091       H  0.61060149  0.19900352  0.25837222     0.18500
N1092       N  0.61078699  0.23277568  0.30548865    -0.88200
H1093       H  0.62155395  0.29406540  0.18551272     0.35900
H1094       H  0.59939994  0.26608488  0.17614572     0.41000
H1095       H  0.62755957  0.21742869  0.30957917     0.40600
H1096       H  0.59057608  0.22195891  0.30752583     0.35500
C1097       C  0.22964446  0.88998718  0.24437679    -0.26200
C1098       C  0.23574163  0.88343354  0.27397055    -0.14300
C1099       C  0.26519246  0.87803986  0.28299040     0.36300
C1100       C  0.28736533  0.87668640  0.26173438    -0.25700
C1101       C  0.28094550  0.88112772  0.23186621    -0.14900
C1102       C  0.25204144  0.88869757  0.22307862     0.37400
N1103       N  0.24514448  0.89278776  0.19238551    -0.89200
H1104       H  0.20701244  0.89367006  0.23753022     0.18500
H1105       H  0.30954445  0.87062676  0.26842088     0.18500
N1106       N  0.27309793  0.87205595  0.31315927    -0.88200
H1107       H  0.22288058  0.89818358  0.18964721     0.35900
H1108       H  0.24830949  0.87257451  0.18174612     0.41000
H1109       H  0.25505943  0.87430293  0.32716234     0.40600
H1110       H  0.28821162  0.88815725  0.31975623     0.35500
C1111       C  0.37520884  0.71019854  0.23703638    -0.26200
C1112       C  0.38673076  0.71658851  0.26504704    -0.14300
C1113       C  0.40235309  0.74333109  0.26944012     0.36300
C1114       C  0.40326679  0.76407017  0.24647615    -0.25700
C1115       C  0.38868727  0.75885498  0.21968422    -0.14900
C1116       C  0.37633480  0.73078939  0.21417514     0.37400
N1117       N  0.36344436  0.72303569  0.18618763    -0.89200
H1118       H  0.36379799  0.68953106  0.23331139     0.18500
H1119       H  0.41301589  0.78548684  0.25062329     0.18500
N1120       N  0.41560861  0.75129035  0.29717314    -0.88200
H1121       H  0.37473649  0.70450498  0.17835400     0.35900
H1122       H  0.36687941  0.73950679  0.17053093     0.41000
H1123       H  0.41364413  0.73468361  0.31288816     0.40600
H1124       H  0.40422160  0.76957914  0.30533512     0.35500
C1125       C  0.27414901  0.09751018  0.74500635    -0.26200
C1126       C  0.26542683  0.10451149  0.77378206    -0.14300
C1127       C  0.23527382  0.10922956  0.77995469     0.36300
C1128       C  0.21509650  0.11032862  0.75665714    -0.25700
C1129       C  0.22429576  0.10649976  0.72754339    -0.14900
C1130       C  0.25374480  0.09874898  0.72157867     0.37400
N1131       N  0.26318453  0.09435325  0.69170732    -0.89200
H1132       H  0.29731629  0.09404277  0.74040892     0.18500
H1133       H  0.19237956  0.11621799  0.76114351     0.18500
N1134       N  0.22474065  0.11498455  0.80925553    -0.88200
H1135       H  0.28554683  0.08876140  0.69117674     0.35900
H1136       H  0.26108547  0.11447980  0.68063952     0.41000
H1137       H  0.24154911  0.11265031  0.82489698     0.40600
H1138       H  0.20926668  0.09871734  0.81424555     0.35500
C1139       C  0.38660361  0.22035718  0.74858021    -0.26200
C1140       C  0.36930483  0.22603247  0.77345165    -0.14300
C1141       C  0.35687899  0.25419786  0.77768425     0.36300
C1142       C  0.36107010  0.27591984  0.75628298    -0.25700
C1143       C  0.37630991  0.26970711  0.73017844    -0.14900
C1144       C  0.38996234  0.24192697  0.72656972     0.37400
N1145       N  0.40652058  0.23556682  0.70041300    -0.89200
H1146       H  0.39626699  0.19867228  0.74569818     0.18500
H1147       H  0.35052807  0.29720150  0.75911860     0.18500
N1148       N  0.33984477  0.26058347  0.80358662    -0.88200
H1149       H  0.41491735  0.21408150  0.70116068     0.35900
H1150       H  0.42467626  0.24971786  0.70018358     0.41000
H1151       H  0.32011984  0.24882382  0.80204543     0.40600
H1152       H  0.33387589  0.28286690  0.80413175     0.35500
C1153       C  0.46354629  0.06805991  0.77081027    -0.26200
C1154       C  0.46017003  0.03749537  0.77322348    -0.14300
C1155       C  0.43754668  0.02600656  0.79096111     0.36300
C1156       C  0.41852433  0.04545781  0.80579581    -0.25700
C1157       C  0.42164688  0.07625183  0.80338602    -0.14900
C1158       C  0.44486419  0.08750608  0.78573857     0.37400
N1159       N  0.44980583  0.11844681  0.78184152    -0.89200
H1160       H  0.48103847  0.07691286  0.75727567     0.18500
H1161       H  0.40097916  0.03644453  0.81912335     0.18500
N1162       N  0.43373280  0.99463840  0.79345152    -0.88200
H1163       H  0.45490424  0.12785216  0.80226385     0.35900
H1164       H  0.43069570  0.12812645  0.77322113     0.41000
H1165       H  0.42799345  0.98662215  0.77261343     0.40600
H1166       H  0.41613549  0.98974719  0.80740902     0.35500
C1167       C  0.72830446  0.89180059  0.75256487    -0.26200
C1168       C  0.73446739  0.88005254  0.78046527    -0.14300
C1169       C  0.76350709  0.87071187  0.78726710     0.36300
C1170       C  0.78479382  0.87055299  0.76506993    -0.25700
C1171       C  0.77795468  0.87952280  0.73617450    -0.14900
C1172       C  0.74974281  0.89155738  0.73034060     0.37400
N1173       N  0.74239113  0.90268741  0.70169764    -0.89200
H1174       H  0.70616862  0.89924891  0.74732638     0.18500
H1175       H  0.80645604  0.86180929  0.77025908     0.18500
N1176       N  0.77190214  0.86022823  0.81606443    -0.88200
H1177       H  0.73594269  0.92472095  0.70397292     0.35900
H1178       H  0.72432815  0.89080395  0.69368396     0.41000
H1179       H  0.75483083  0.86275762  0.83117349     0.40600
H1180       H  0.78894867  0.87372631  0.82374215     0.35500
C1181       C  0.60591389  0.74887494  0.77492496    -0.26200
C1182       C  0.61711956  0.77679020  0.76823919    -0.14300
C1183       C  0.62399705  0.78395253  0.73877380     0.36300
C1184       C  0.62254352  0.76191778  0.71728179    -0.25700
C1185       C  0.61460267  0.73286541  0.72453874    -0.14900
C1186       C  0.60456271  0.72681400  0.75331980     0.37400
N1187       N  0.59409249  0.69807844  0.76105220    -0.89200
H1188       H  0.60010852  0.74353916  0.79743972     0.18500
H1189       H  0.62966596  0.76726010  0.69516924     0.18500
N1190       N  0.63371526  0.81285560  0.73010581    -0.88200
H1191       H  0.57259627  0.70028475  0.76895427     0.35900
H1192       H  0.60729114  0.68995129  0.77818893     0.41000
H1193       H  0.63317447  0.82767050  0.74769656     0.40600
H1194       H  0.61858705  0.82090493  0.71459458     0.35500
C1195       C  0.57869417  0.95086884  0.80899322    -0.26200
C1196       C  0.57561128  0.92027543  0.80526195    -0.14300
C1197       C  0.55335250  0.90941941  0.78615609     0.36300
C1198       C  0.53483642  0.92940322  0.77128262    -0.25700
C1199       C  0.53822194  0.95987852  0.77483227    -0.14900
C1200       C  0.56021231  0.97079151  0.79395200     0.37400
N1201       N  0.56399128  0.00205442  0.79756270    -0.89200
H1202       H  0.59577293  0.95926914  0.82348696     0.18500
H1203       H  0.51786130  0.92122510  0.75652981     0.18500
N1204       N  0.55018550  0.87825969  0.78113560    -0.88200
H1205       H  0.58111428  0.00646109  0.81243711     0.35900
H1206       H  0.57046266  0.01066579  0.77725018     0.41000
H1207       H  0.56914376  0.87094796  0.77032643     0.40600
H1208       H  0.53249368  0.87405685  0.76689775     0.35500
C1209       C  0.68652165  0.04877313  0.07338873    -0.26200
C1210       C  0.69318715  0.07892205  0.07229145    -0.14300
C1211       C  0.71553787  0.08884970  0.05296961     0.36300
C1212       C  0.73148267  0.06822006  0.03652697    -0.25700
C1213       C  0.72561711  0.03793410  0.03831000    -0.14900
C1214       C  0.70284294  0.02801460  0.05724084     0.37400
N1215       N  0.69647734  0.99726137  0.06176790    -0.89200
H1216       H  0.66971142  0.04104184  0.08839312     0.18500
H1217       H  0.74847154  0.07605099  0.02177228     0.18500
N1218       N  0.72258591  0.11957157  0.04919526    -0.88200
H1219       H  0.69922566  0.99285876  0.08424600     0.35900
H1220       H  0.71165633  0.98368527  0.05120880     0.41000
H1221       H  0.70768895  0.13324252  0.06011907     0.40600
H1222       H  0.71989842  0.12459635  0.02687336     0.35500
C1223       C  0.70926136  0.91246071  0.94878464    -0.26200
C1224       C  0.69600155  0.92345861  0.92287429    -0.14300
C1225       C  0.69954217  0.95366253  0.91590018     0.36300
C1226       C  0.71592345  0.97200703  0.93475305    -0.25700
C1227       C  0.72924410  0.96077333  0.96029431    -0.14900
C1228       C  0.72583903  0.93071403  0.96735564     0.37400
N1229       N  0.73875674  0.91827767  0.99342645    -0.89200
H1230       H  0.70721502  0.88936076  0.95450368     0.18500
H1231       H  0.71823744  0.99518615  0.92943224     0.18500
N1232       N  0.68643122  0.96596059  0.88987305    -0.88200
H1233       H  0.73081692  0.92984414  0.01166554     0.35900
H1234       H  0.76158432  0.92115608  0.99245667     0.41000
H1235       H  0.70322900  0.97496236  0.87703590     0.40600
H1236       H  0.67237987  0.98310161  0.89621354     0.35500
C1237       C  0.29651908  0.96709476  0.05911348    -0.26200
C1238       C  0.27488040  0.95562861  0.04008423    -0.14300
C1239       C  0.27062345  0.92491469  0.03892274     0.36300
C1240       C  0.28741826  0.90627951  0.05719137    -0.25700
C1241       C  0.30840520  0.91774280  0.07701338    -0.14900
C1242       C  0.31314582  0.94849112  0.07763641     0.37400
N1243       N  0.33503620  0.96091270  0.09676820    -0.89200
H1244       H  0.30024755  0.99068230  0.05990479     0.18500
H1245       H  0.28341422  0.88274202  0.05636709     0.18500
N1246       N  0.24950885  0.91253697  0.01890514    -0.88200
H1247       H  0.32465412  0.97612032  0.11061390     0.35900
H1248       H  0.35015687  0.97236686  0.08381265     0.41000
H1249       H  0.23429769  0.90044039  0.03116245     0.40600
H1250       H  0.26056764  0.89792513  0.00495920     0.35500
C1251       C  0.28181916  0.08286590  0.94391998    -0.26200
C1252       C  0.29949969  0.07069979  0.92157966    -0.14300
C1253       C  0.30250156  0.03958775  0.91993388     0.36300
C1254       C  0.28868450  0.02180870  0.94089867    -0.25700
C1255       C  0.27109999  0.03414387  0.96301947    -0.14900
C1256       C  0.26749404  0.06494574  0.96451263     0.37400
N1257       N  0.24937078  0.07787633  0.98700087    -0.89200
H1258       H  0.27884524  0.10654517  0.94521149     0.18500
H1259       H  0.29115284  0.99806293  0.93953023     0.18500
N1260       N  0.31946411  0.02529045  0.89754078    -0.88200
H1261       H  0.24874842  0.10082871  0.98486122     0.35900
H1262       H  0.25929496  0.07336843  0.00735352     0.41000
H1263       H  0.34091192  0.03360965  0.89809163     0.40600
H1264       H  0.30986266  0.02968662  0.87701142     0.35500
C1265       C  0.55792328  0.02637324  0.20100332    -0.26200
C1266       C  0.54207472  0.03589466  0.22586282    -0.14300
C1267       C  0.54301174  0.06602138  0.23378000     0.36300
C1268       C  0.56094073  0.08543684  0.21777853    -0.25700
C1269       C  0.57725221  0.07578951  0.19336227    -0.14900
C1270       C  0.57546456  0.04600185  0.18465294     0.37400
N1271       N  0.59220697  0.03556515  0.15994361    -0.89200
H1272       H  0.55725486  0.00331722  0.19478141     0.18500
H1273       H  0.56209561  0.10839686  0.22432194     0.18500
N1274       N  0.52549566  0.07690762  0.25777496    -0.88200
H1275       H  0.58829883  0.01313197  0.15633829     0.35900
H1276       H  0.61453831  0.03751486  0.16537845     0.41000
H1277       H  0.50332848  0.07416979  0.25197203     0.40600
H1278       H  0.52875788  0.09952101  0.26076019     0.35500
C1279       C  0.47925283  0.93190295  0.21032757    -0.26200
C1280       C  0.46824806  0.95425878  0.22857448    -0.14300
C1281       C  0.43747086  0.95834178  0.23073507     0.36300
C1282       C  0.41839248  0.93980827  0.21509129    -0.25700
C1283       C  0.42924487  0.91688823  0.19730647    -0.14900
C1284       C  0.46007933  0.91311475  0.19482587     0.37400
N1285       N  0.47207026  0.89059567  0.17624453    -0.89200
H1286       H  0.50285894  0.92893170  0.20822006     0.18500
H1287       H  0.39484430  0.94307352  0.21733520     0.18500
N1288       N  0.42499759  0.98154435  0.24814497    -0.88200
H1289       H  0.48540619  0.87688311  0.18921530     0.35900
H1290       H  0.48543350  0.90071111  0.16053296     0.41000
H1291       H  0.43374502  0.00162223  0.24104590     0.40600
H1292       H  0.43095980  0.97830583  0.27016101     0.35500
C1293       C  0.53517991  0.76868930  0.93391756    -0.26200
C1294       C  0.54212762  0.76889096  0.96399070    -0.14300
C1295       C  0.56678164  0.78493347  0.97403993     0.36300
C1296       C  0.58393959  0.80048161  0.95387031    -0.25700
C1297       C  0.57725128  0.80037424  0.92354446    -0.14900
C1298       C  0.55249829  0.78405977  0.91347273     0.37400
N1299       N  0.54528606  0.78249369  0.88261968    -0.89200
H1300       H  0.51626879  0.75617631  0.92635641     0.18500
H1301       H  0.60287663  0.81252533  0.96207591     0.18500
N1302       N  0.57542513  0.78507523  0.00445350    -0.88200
H1303       H  0.52588090  0.77052848  0.87926120     0.35900
H1304       H  0.56204794  0.77054659  0.87229207     0.41000
H1305       H  0.57869311  0.76322976  0.01123706     0.40600
H1306       H  0.55842123  0.79420153  0.01686220     0.35500
C1307       C  0.43609142  0.76018575  0.04144725    -0.26200
C1308       C  0.46619780  0.76689043  0.04288590    -0.14300
C1309       C  0.47604014  0.78918033  0.06228158     0.36300
C1310       C  0.45541229  0.80448231  0.07956927    -0.25700
C1311       C  0.42516783  0.79791732  0.07798618    -0.14900
C1312       C  0.41557336  0.77530891  0.05863712     0.37400
N1313       N  0.38536318  0.76638443  0.05660554    -0.89200
H1314       H  0.42836694  0.74312772  0.02657884     0.18500
H1315       H  0.46303446  0.82145090  0.09458073     0.18500
N1316       N  0.50693218  0.79581514  0.06471052    -0.88200
H1317       H  0.37278295  0.78403141  0.04869850     0.35900
H1318       H  0.37805164  0.76043444  0.07759118     0.41000
H1319       H  0.51753725  0.77709745  0.07309258     0.40600
H1320       H  0.51048440  0.81277377  0.07993254     0.35500
C1321       C  0.58489511  0.20834622  0.05042372    -0.26200
C1322       C  0.57367530  0.18875329  0.07152627    -0.14300
C1323       C  0.54279267  0.18457612  0.07332677     0.36300
C1324       C  0.52414245  0.20075993  0.05452861    -0.25700
C1325       C  0.53541180  0.22120954  0.03426794    -0.14900
C1326       C  0.56624681  0.22437849  0.03174687     0.37400
N1327       N  0.57930116  0.24308554  0.00999504    -0.89200
H1328       H  0.60849872  0.21160603  0.04879070     0.18500
H1329       H  0.50050148  0.19798256  0.05637190     0.18500
N1330       N  0.52937757  0.16564447  0.09481771    -0.88200
H1331       H  0.57337767  0.26493033  0.01414513     0.35900
H1332       H  0.57118361  0.23700747  0.98926415     0.41000
H1333       H  0.54482907  0.15581855  0.10872459     0.40600
H1334       H  0.51877939  0.14859928  0.08340865     0.35500
C1335       C  0.44518515  0.19400422  0.91523579    -0.26200
C1336       C  0.41514162  0.19185962  0.92246879    -0.14300
C1337       C  0.40512260  0.20536724  0.94872927     0.36300
C1338       C  0.42503393  0.22064742  0.96686018    -0.25700
C1339       C  0.45484394  0.22265964  0.95946651    -0.14900
C1340       C  0.46502120  0.20911965  0.93344433     0.37400
N1341       N  0.49525072  0.21096847  0.92469219    -0.89200
H1342       H  0.45338104  0.18401847  0.89518629     0.18500
H1343       H  0.41715123  0.23105647  0.98683682     0.18500
N1344       N  0.37467285  0.20434150  0.95682278    -0.88200
H1345       H  0.50835422  0.20123946  0.94102361     0.35900
H1346       H  0.50094551  0.23323691  0.92307629     0.41000
H1347       H  0.36688805  0.22599822  0.95851226     0.40600
H1348       H  0.37322792  0.19454398  0.97761393     0.35500
C1349       C  0.10133771  0.74477607  0.23254981    -0.26200
C1350       C  0.11824583  0.71910932  0.23649382    -0.14300
C1351       C  0.13418987  0.71491880  0.26294652     0.36300
C1352       C  0.13595981  0.73797206  0.28327143    -0.25700
C1353       C  0.12168867  0.76484284  0.27794179    -0.14900
C1354       C  0.10304421  0.76797198  0.25316804     0.37400
N1355       N  0.08765183  0.79524833  0.24804159    -0.89200
H1356       H  0.08904305  0.74781637  0.21223950     0.18500
H1357       H  0.14974473  0.73552408  0.30271405     0.18500
N1358       N  0.14997224  0.68782608  0.26812495    -0.88200
H1359       H  0.07493560  0.79389076  0.22882205     0.35900
H1360       H  0.10341482  0.81162192  0.24439274     0.41000
H1361       H  0.13442119  0.67093947  0.26963224     0.40600
H1362       H  0.16109113  0.68849020  0.28836822     0.35500
C1363       C  0.21855271  0.75936692  0.13977452    -0.26200
C1364       C  0.22222047  0.73357796  0.12317861    -0.14300
C1365       C  0.24668950  0.73074393  0.10434890     0.36300
C1366       C  0.26846312  0.75288374  0.10455406    -0.25700
C1367       C  0.26605580  0.77724159  0.12352169    -0.14900
C1368       C  0.24008186  0.78135642  0.13996157     0.37400
N1369       N  0.23630355  0.80735434  0.15774165    -0.89200
H1370       H  0.19937273  0.76171550  0.15373560     0.18500
H1371       H  0.28834308  0.74995708  0.09175213     0.18500
N1372       N  0.25028371  0.70469016  0.08667227    -0.88200
H1373       H  0.21613759  0.80681388  0.16877104     0.35900
H1374       H  0.23543316  0.82546357  0.14350271     0.41000
H1375       H  0.25325199  0.68681928  0.10095558     0.40600
H1376       H  0.26943722  0.70613907  0.07406634     0.35500
C1377       C  0.27068545  0.59769983  0.25188231    -0.26200
C1378       C  0.26541200  0.61439239  0.27747333    -0.14300
C1379       C  0.23751899  0.62775846  0.28145717     0.36300
C1380       C  0.21719099  0.62733185  0.25834155    -0.25700
C1381       C  0.22351428  0.61332993  0.23159315    -0.14900
C1382       C  0.24988062  0.59718374  0.22862788     0.37400
N1383       N  0.25619694  0.58202661  0.20157812    -0.89200
H1384       H  0.29195889  0.58720327  0.24901087     0.18500
H1385       H  0.19666865  0.63939058  0.26078911     0.18500
N1386       N  0.22952766  0.64302684  0.30807912    -0.88200
H1387       H  0.27653899  0.57122772  0.20306415     0.35900
H1388       H  0.25822051  0.59788139  0.18499416     0.41000
H1389       H  0.24531767  0.64004507  0.32460533     0.40600
H1390       H  0.21037957  0.63315307  0.31612793     0.35500
C1391       C  0.88351925  0.21943669  0.24517163    -0.26200
C1392       C  0.88217994  0.22860373  0.27476549    -0.14300
C1393       C  0.88431945  0.25899865  0.28106723     0.36300
C1394       C  0.88427525  0.27948460  0.25795712    -0.25700
C1395       C  0.88219476  0.27043108  0.22836328    -0.14900
C1396       C  0.88375581  0.23992652  0.22191863     0.37400
N1397       N  0.88436619  0.22969712  0.19193843    -0.89200
H1398       H  0.88289584  0.19613556  0.23995528     0.18500
H1399       H  0.88435973  0.30273542  0.26346848     0.18500
N1400       N  0.88562646  0.26937791  0.31085818    -0.88200
H1401       H  0.88458937  0.20663986  0.19112715     0.35900
H1402       H  0.90426071  0.23666822  0.18279804     0.41000
H1403       H  0.86775186  0.28354537  0.31427594     0.40600
H1404       H  0.90498355  0.28160137  0.31343727     0.35500
C1405       C  0.74107246  0.28267280  0.12041052    -0.26200
C1406       C  0.77058869  0.27401792  0.11676848    -0.14300
C1407       C  0.77681133  0.24446805  0.10904313     0.36300
C1408       C  0.75385289  0.22370134  0.10879971    -0.25700
C1409       C  0.72475853  0.23183901  0.11569602    -0.14900
C1410       C  0.71809223  0.26207324  0.11986076     0.37400
N1411       N  0.68839100  0.27170059  0.12535804    -0.89200
H1412       H  0.73589143  0.30545590  0.12541103     0.18500
H1413       H  0.75899769  0.20076718  0.10447373     0.18500
N1414       N  0.80643197  0.23538086  0.10245974    -0.88200
H1415       H  0.67633614  0.26854367  0.10591263     0.35900
H1416       H  0.68767510  0.29432117  0.12975474     0.41000
H1417       H  0.81278832  0.24637842  0.08327739     0.40600
H1418       H  0.80722440  0.21283528  0.09767451     0.35500
C1419       C  0.78070888  0.38383686  0.25873729    -0.26200
C1420       C  0.77253185  0.38237642  0.22887677    -0.14300
C1421       C  0.74229708  0.38477201  0.22123561     0.36300
C1422       C  0.72108515  0.38463001  0.24357782    -0.25700
C1423       C  0.72924493  0.38255733  0.27339115    -0.14900
C1424       C  0.75944404  0.38399959  0.28098603     0.37400
N1425       N  0.76881261  0.38446076  0.31118242    -0.89200
H1426       H  0.80375936  0.38318901  0.26507466     0.18500
H1427       H  0.69797802  0.38465103  0.23745269     0.18500
N1428       N  0.73302407  0.38606359  0.19090455    -0.88200
H1429       H  0.78136716  0.40348189  0.31456501     0.35900
H1430       H  0.78240458  0.36616726  0.31489569     0.41000
H1431       H  0.74069395  0.40595641  0.18222964     0.40600
H1432       H  0.71003862  0.38673395  0.18920124     0.35500
C1433       C  0.87662876  0.73929497  0.71917858    -0.26200
C1434       C  0.88821928  0.76735917  0.72507155    -0.14300
C1435       C  0.90177324  0.77287608  0.75262621     0.36300
C1436       C  0.90001936  0.75144203  0.77496804    -0.25700
C1437       C  0.88500069  0.72493249  0.76996965    -0.14900
C1438       C  0.87446933  0.71814080  0.74150918     0.37400
N1439       N  0.86080309  0.69011661  0.73563233    -0.89200
H1440       H  0.86676174  0.73470195  0.69787513     0.18500
H1441       H  0.90855149  0.75622080  0.79679517     0.18500
N1442       N  0.91611704  0.80058229  0.75812042    -0.88200
H1443       H  0.85571851  0.68807510  0.71323252     0.35900
H1444       H  0.84067500  0.68957722  0.74669783     0.41000
H1445       H  0.93401066  0.80201259  0.74376043     0.40600
H1446       H  0.92482095  0.80113198  0.77948378     0.35500
C1447       C  0.78051260  0.76212501  0.88456008    -0.26200
C1448       C  0.77414421  0.73238108  0.88961421    -0.14300
C1449       C  0.74527530  0.72389130  0.89715915     0.36300
C1450       C  0.72274362  0.74527513  0.89719515    -0.25700
C1451       C  0.72883593  0.77458574  0.88961632    -0.14900
C1452       C  0.75826524  0.78344409  0.88471654     0.37400
N1453       N  0.76606751  0.81339041  0.87773769    -0.89200
H1454       H  0.80269616  0.76857233  0.87861498     0.18500
H1455       H  0.70009783  0.73864288  0.90069015     0.18500
N1456       N  0.73858460  0.69339186  0.90251664    -0.88200
H1457       H  0.78088142  0.82060502  0.89389507     0.35900
H1458       H  0.74793585  0.82754631  0.87899938     0.41000
H1459       H  0.74185863  0.68185687  0.88285006     0.40600
H1460       H  0.71632776  0.69092668  0.90782617     0.35500
C1461       C  0.73910296  0.63409443  0.78615810    -0.26200
C1462       C  0.76769729  0.62546012  0.77874511    -0.14300
C1463       C  0.77344737  0.61404954  0.75050100     0.36300
C1464       C  0.75076872  0.61320991  0.72955764    -0.25700
C1465       C  0.72231671  0.62362068  0.73626263    -0.14900
C1466       C  0.71612872  0.63284727  0.76545527     0.37400
N1467       N  0.68708270  0.64245544  0.77369180    -0.89200
H1468       H  0.73492907  0.64277907  0.80800637     0.18500
H1469       H  0.75586574  0.60573741  0.70748008     0.18500
N1470       N  0.80244283  0.60494971  0.74199974    -0.88200
H1471       H  0.68690649  0.65013231  0.79541667     0.35900
H1472       H  0.67340782  0.62393297  0.77324034     0.41000
H1473       H  0.80928446  0.58803569  0.75611672     0.40600
H1474       H  0.81676439  0.62280583  0.74464759     0.35500
C1475       C  0.04748515  0.69710576  0.08246102    -0.26200
C1476       C  0.07804422  0.69816183  0.07759062    -0.14300
C1477       C  0.08888799  0.71573416  0.05419937     0.36300
C1478       C  0.06896616  0.73152147  0.03632204    -0.25700
C1479       C  0.03859236  0.73041725  0.04138892    -0.14900
C1480       C  0.02777689  0.71299136  0.06471496     0.37400
N1481       N  0.99699436  0.71180892  0.07148688    -0.89200
H1482       H  0.03878765  0.68405511  0.10041090     0.18500
H1483       H  0.07715698  0.74502301  0.01845980     0.18500
N1484       N  0.12003803  0.71825370  0.04911351    -0.88200
H1485       H  0.98564928  0.70307163  0.05342776     0.35900
H1486       H  0.98947025  0.73330803  0.07514988     0.41000
H1487       H  0.12921754  0.72929732  0.06717504     0.40600
H1488       H  0.12414148  0.73141575  0.03067814     0.35500
C1489       C  0.97189296  0.71251132  0.94421648    -0.26200
C1490       C  0.95997696  0.73248833  0.96455322    -0.14300
C1491       C  0.92917903  0.73629149  0.96590544     0.36300
C1492       C  0.91092962  0.72017818  0.94666920    -0.25700
C1493       C  0.92280202  0.70047335  0.92591310    -0.14900
C1494       C  0.95381980  0.69678928  0.92474191     0.37400
N1495       N  0.96768471  0.67691726  0.90452322    -0.89200
H1496       H  0.99556338  0.70941542  0.94318617     0.18500
H1497       H  0.88727945  0.72337186  0.94761991     0.18500
N1498       N  0.91656787  0.75626031  0.98699919    -0.88200
H1499       H  0.96395517  0.68434297  0.88301912     0.35900
H1500       H  0.95847206  0.65598787  0.90708314     0.41000
H1501       H  0.92138889  0.74808455  0.00801790     0.40600
H1502       H  0.89359955  0.75665947  0.98502924     0.35500
C1503       C  0.10923238  0.24907514  0.77092601    -0.26200
C1504       C  0.12182203  0.27666843  0.76449495    -0.14300
C1505       C  0.13385309  0.28147933  0.73625492     0.36300
C1506       C  0.13498969  0.25828510  0.71599989    -0.11300
C1507       C  0.12404431  0.23038678  0.72309714    -0.14900
C1508       C  0.11023609  0.22579701  0.75041949     0.37400
N1509       N  0.09868806  0.19725270  0.75778052    -0.89200
H1510       H  0.09983797  0.24524943  0.79248309     0.18500
H1511       H  0.14560107  0.26178380  0.69493989     0.18500
N1512       N  0.14666001  0.30927712  0.72858138    -0.88200
H1513       H  0.08919974  0.19762930  0.77869195     0.35900
H1514       H  0.11644542  0.18250731  0.75894121     0.41000
H1515       H  0.13592752  0.31715793  0.70971146     0.40600
H1516       H  0.16881644  0.30576556  0.72337144     0.35500
C1517       C  0.25227189  0.27448214  0.88438186    -0.26200
C1518       C  0.22200211  0.26779838  0.88304008    -0.14300
C1519       C  0.21315991  0.23793614  0.88572420     0.36300
C1520       C  0.23469288  0.21554885  0.88563309    -0.25700
C1521       C  0.26467129  0.22242811  0.88383388    -0.14900
C1522       C  0.27367945  0.25207254  0.88444303     0.37400
N1523       N  0.30451534  0.25928801  0.88353470    -0.89200
H1524       H  0.25943011  0.29721882  0.88321754     0.18500
H1525       H  0.22803114  0.19261086  0.88536547     0.18500
N1526       N  0.18247527  0.23028649  0.88721273    -0.88200
H1527       H  0.30747867  0.28213271  0.88442290     0.35900
H1528       H  0.31268713  0.25240032  0.86316537     0.41000
H1529       H  0.17426575  0.23892788  0.90689793     0.40600
H1530       H  0.17987200  0.20741238  0.88847109     0.35500
C1531       C  0.26084018  0.37846159  0.78017058    -0.26200
C1532       C  0.23092793  0.37930419  0.77204720    -0.14300
C1533       C  0.22358907  0.38233685  0.74185069     0.36300
C1534       C  0.24579585  0.38148444  0.72057803    -0.25700
C1535       C  0.27551838  0.37788121  0.72850059    -0.14900
C1536       C  0.28324061  0.37801879  0.75884268     0.37400
N1537       N  0.31357324  0.37636564  0.76805752    -0.89200
H1538       H  0.26684515  0.37692794  0.80325312     0.18500
H1539       H  0.23943658  0.38239464  0.69754543     0.18500
N1540       N  0.19354250  0.38518835  0.73236317    -0.88200
H1541       H  0.31524327  0.37528846  0.79101489     0.35900
H1542       H  0.32364650  0.39611224  0.76183854     0.41000
H1543       H  0.18869840  0.36764022  0.71820301     0.40600
H1544       H  0.19148984  0.40480550  0.72041708     0.35500
C1545       C  0.95248403  0.58372438  0.80926234    -0.26200
C1546       C  0.92205214  0.58149456  0.80373492    -0.14300
C1547       C  0.91214591  0.56177273  0.78149976     0.36300
C1548       C  0.93258874  0.54497102  0.76574293    -0.25700
C1549       C  0.96287792  0.54701930  0.77155400    -0.14900
C1550       C  0.97298022  0.56677553  0.79339809     0.37400
N1551       N  0.00402619  0.56988156  0.79904908    -0.89200
H1552       H  0.96037154  0.59894736  0.82591839     0.18500
H1553       H  0.92468115  0.52984529  0.74899195     0.18500
N1554       N  0.88165069  0.55880836  0.77370295    -0.88200
H1555       H  0.00779546  0.58525360  0.81581861     0.35900
H1556       H  0.01362940  0.57843054  0.77999512     0.41000
H1557       H  0.87329991  0.57951909  0.76786549     0.40600
H1558       H  0.87015236  0.55065324  0.79183242     0.35500
C1559       C  0.08984924  0.44685078  0.78056774    -0.26200
C1560       C  0.07901626  0.43035785  0.80435312    -0.14300
C1561       C  0.04947553  0.43422135  0.81309324     0.36300
C1562       C  0.03124012  0.45393398  0.79730399    -0.25700
C1563       C  0.04191637  0.46984293  0.77296287    -0.14900
C1564       C  0.07182914  0.46681753  0.76508856     0.37400
N1565       N  0.08389424  0.48420286  0.74158003    -0.89200
H1566       H  0.11264081  0.44415287  0.77404505     0.18500
H1567       H  0.00831431  0.45621054  0.80346757     0.18500
N1568       N  0.03780707  0.41740697  0.83718544    -0.88200
H1569       H  0.10618682  0.47925902  0.73852035     0.35900
H1570       H  0.08282271  0.50632978  0.74798019     0.41000
H1571       H  0.03803032  0.39519886  0.83098178     0.40600
H1572       H  0.01575982  0.42299099  0.84087250     0.35500
C1573       C  0.93373925  0.27989318  0.03231885    -0.26200
C1574       C  0.96380786  0.27915316  0.03934213    -0.14300
C1575       C  0.97421775  0.29456284  0.06433133     0.36300
C1576       C  0.95425629  0.30994061  0.08210698    -0.25700
C1577       C  0.92403724  0.31017048  0.07540766    -0.14900
C1578       C  0.91369771  0.29539594  0.04986831     0.37400
N1579       N  0.88315206  0.29546672  0.04114005    -0.89200
H1580       H  0.92578070  0.26838342  0.01291580     0.18500
H1581       H  0.96221331  0.32083895  0.10185514     0.18500
N1582       N  0.00470731  0.29402628  0.07267136    -0.88200
H1583       H  0.88177188  0.30542434  0.02040666     0.35900
H1584       H  0.87029063  0.30840145  0.05511967     0.41000
H1585       H  0.01704183  0.30308159  0.05556343     0.40600
H1586       H  0.01114686  0.27203576  0.07546059     0.35500
C1587       C  0.03065232  0.27966685  0.92970694    -0.26200
C1588       C  0.03832257  0.27944164  0.95966306    -0.14300
C1589       C  0.06339975  0.29518070  0.96935686     0.36300
C1590       C  0.08027849  0.31080930  0.94895901    -0.25700
C1591       C  0.07289544  0.31059488  0.91894665    -0.14900
C1592       C  0.04781261  0.29488387  0.90925323     0.37400
N1593       N  0.03927758  0.29415442  0.87882060    -0.89200
H1594       H  0.01134829  0.26774673  0.92218198     0.18500
H1595       H  0.09997792  0.32213413  0.95638753     0.18500
N1596       N  0.07285625  0.29461973  0.99951787    -0.88200
H1597       H  0.05621222  0.28442690  0.86669538     0.35900
H1598       H  0.03648369  0.31587133  0.87153325     0.41000
H1599       H  0.07607482  0.27261588  0.00575011     0.40600
H1600       H  0.05623203  0.30360959  0.01254652     0.35500
C1601       C  0.05525038  0.53006503  0.20671894    -0.26200
C1602       C  0.03583401  0.54250060  0.22726886    -0.14300
C1603       C  0.03538832  0.57330614  0.23139264     0.36300
C1604       C  0.05493157  0.59098020  0.21533399    -0.25700
C1605       C  0.07475105  0.57850755  0.19509152    -0.14900
C1606       C  0.07467632  0.54777313  0.19064875     0.37400
N1607       N  0.09385538  0.53450475  0.16945835    -0.89200
H1608       H  0.05542949  0.50641738  0.20322938     0.18500
H1609       H  0.05495103  0.61460107  0.21896219     0.18500
N1610       N  0.01489566  0.58650256  0.25158173    -0.88200
H1611       H  0.08084551  0.52336372  0.15399305     0.35900
H1612       H  0.10698362  0.51892989  0.18035653     0.41000
H1613       H  0.99364085  0.58252750  0.24351118     0.40600
H1614       H  0.01750846  0.60939584  0.25212167     0.35500
C1615       C  0.95983857  0.43461050  0.23293013    -0.26200
C1616       C  0.95879483  0.46458847  0.22553137    -0.14300
C1617       C  0.94095307  0.47397905  0.20164828     0.36300
C1618       C  0.92419354  0.45310525  0.18593344    -0.25700
C1619       C  0.92456523  0.42329164  0.19406370    -0.14900
C1620       C  0.94301958  0.41384289  0.21738341     0.37400
N1621       N  0.94458706  0.38311877  0.22512753    -0.89200
H1622       H  0.97404333  0.42736294  0.25080111     0.18500
H1623       H  0.90978771  0.46029068  0.16820222     0.18500
N1624       N  0.93929657  0.50471408  0.19401760    -0.88200
H1625       H  0.95911092  0.37984665  0.24280945     0.35900
H1626       H  0.95347909  0.37182604  0.20715567     0.41000
H1627       H  0.92991117  0.51587693  0.21182779     0.40600
H1628       H  0.92517817  0.50791438  0.17601607     0.35500
C1629       C  0.23145553  0.57016192  0.03580738    -0.26200
C1630       C  0.22661022  0.53970346  0.03746474    -0.14300
C1631       C  0.20616877  0.52875249  0.05800201     0.36300
C1632       C  0.19134235  0.54828664  0.07683035    -0.25700
C1633       C  0.19624830  0.57882223  0.07536620    -0.14900
C1634       C  0.21639298  0.58978295  0.05436730     0.37400
N1635       N  0.22233778  0.62072965  0.05232805    -0.89200
H1636       H  0.24700233  0.57878975  0.01996133     0.18500
H1637       H  0.17600425  0.53945640  0.09276038     0.18500
N1638       N  0.20097073  0.49769567  0.06031123    -0.88200
H1639       H  0.21747504  0.62755991  0.03083572     0.35900
H1640       H  0.24485856  0.62395370  0.05605075     0.41000
H1641       H  0.17851783  0.49396628  0.05659565     0.40600
H1642       H  0.20594467  0.49116004  0.08185472     0.35500
C1643       C  0.20534241  0.47181971  0.94130690    -0.26200
C1644       C  0.22534673  0.45995859  0.96192702    -0.14300
C1645       C  0.22769465  0.42898560  0.96471073     0.36300
C1646       C  0.21141768  0.41074421  0.94586907    -0.25700
C1647       C  0.19221537  0.42260869  0.92459088    -0.14900
C1648       C  0.18878998  0.45349939  0.92268419     0.37400
N1649       N  0.16965874  0.46683419  0.90127921    -0.89200
H1650       H  0.20299990  0.49553001  0.93929915     0.18500
H1651       H  0.21398327  0.38703339  0.94766502     0.18500
N1652       N  0.24574661  0.41543197  0.98692147    -0.88200
H1653       H  0.14818977  0.45951158  0.90505638     0.35900
H1654       H  0.17611586  0.45983242  0.88032862     0.41000
H1655       H  0.23954807  0.42377983  0.00749270     0.40600
H1656       H  0.26772731  0.42076990  0.98317631     0.35500
C1657       C  0.79147379  0.52630585  0.93502713    -0.26200
C1658       C  0.77428984  0.53658188  0.95845552    -0.14300
C1659       C  0.77429774  0.56694667  0.96524185     0.36300
C1660       C  0.79042385  0.58653972  0.94779314    -0.25700
C1661       C  0.80671528  0.57655175  0.92342559    -0.14900
C1662       C  0.80761038  0.54594274  0.91746319     0.37400
N1663       N  0.82509246  0.53459570  0.89383200    -0.89200
H1664       H  0.79220708  0.50289937  0.93021795     0.18500
H1665       H  0.78954808  0.60985704  0.95295070     0.18500
N1666       N  0.75842525  0.57838253  0.98995786    -0.88200
H1667       H  0.81119103  0.52305330  0.87947826     0.35900
H1668       H  0.84030473  0.51962378  0.90268160     0.41000
H1669       H  0.76594558  0.56765184  0.00896496     0.40600
H1670       H  0.73607619  0.57360799  0.98712376     0.35500
C1671       C  0.79869311  0.44206215  0.02683640    -0.26200
C1672       C  0.77460354  0.45918228  0.03616772    -0.14300
C1673       C  0.76699986  0.45946831  0.06627137     0.36300
C1674       C  0.78276556  0.44162330  0.08612877    -0.25700
C1675       C  0.80646890  0.42409739  0.07672556    -0.14900
C1676       C  0.81464706  0.42436864  0.04682272     0.37400
N1677       N  0.83832692  0.40590939  0.03670165    -0.89200
H1678       H  0.80456745  0.44194047  0.00372778     0.18500
H1679       H  0.77653988  0.44135757  0.10915229     0.18500
N1680       N  0.74351631  0.47808784  0.07659034    -0.88200
H1681       H  0.84154932  0.40874672  0.01408868     0.35900
H1682       H  0.83194108  0.38396773  0.03966314     0.41000
H1683       H  0.74980032  0.49996899  0.07306108     0.40600
H1684       H  0.74071671  0.47566442  0.09931235     0.35500
C1685       C  0.87166382  0.97879464  0.00854050    -0.26200
C1686       C  0.88579092  0.00572704  0.00313501    -0.14300
C1687       C  0.86845069  0.03103558  0.99724286     0.36300
C1688       C  0.83760364  0.02878105  0.99661247    -0.25700
C1689       C  0.82345543  0.00173627  0.00181342    -0.14900
C1690       C  0.84087026  0.97659712  0.00832434     0.37400
N1691       N  0.82796756  0.94885784  0.01601405    -0.89200
H1692       H  0.88470865  0.95933558  0.01348026     0.18500
H1693       H  0.82455590  0.04824905  0.99173064     0.18500
N1694       N  0.88154856  0.05901143  0.99085515    -0.88200
H1695       H  0.81608225  0.94078455  0.99804047     0.35900
H1696       H  0.81353201  0.95219581  0.03360555     0.41000
H1697       H  0.89567771  0.05642807  0.97291110     0.40600
H1698       H  0.89395766  0.06569953  0.00911341     0.35500
C1699       C  0.99871102  0.87570703  0.98021302    -0.26200
C1700       C  0.99990082  0.89049552  0.00737101    -0.14300
C1701       C  0.00140567  0.87375775  0.03362993     0.36300
C1702       C  0.00108140  0.84270983  0.03203165    -0.25700
C1703       C  0.00009470  0.82789028  0.00480767    -0.14900
C1704       C  0.99946891  0.84473592  0.97857440     0.37400
N1705       N  0.00031438  0.83042153  0.95031706    -0.89200
H1706       H  0.99801427  0.88846624  0.96002964     0.18500
H1707       H  0.00139369  0.82997756  0.05222625     0.18500
N1708       N  0.00213952  0.88818977  0.06183968    -0.88200
H1709       H  0.99966301  0.84592370  0.93329005     0.35900
H1710       H  0.02058691  0.81951765  0.94871956     0.41000
H1711       H  0.02274143  0.89821624  0.06407770     0.40600
H1712       H  0.00088352  0.87270981  0.07885932     0.35500
C1713       C  0.99939171  0.03143914  0.87479414    -0.26200
C1714       C  0.99975460  0.00454211  0.89008238    -0.14300
C1715       C  0.99960410  0.97788461  0.87401336     0.36300
C1716       C  0.99889613  0.97871679  0.84300940    -0.25700
C1717       C  0.99844877  0.00561818  0.82761005    -0.14900
C1718       C  0.99826973  0.03229722  0.84378880     0.37400
N1719       N  0.99636065  0.06013751  0.82873778    -0.89200
H1720       H  0.99926327  0.05189089  0.88715268     0.18500
H1721       H  0.99937686  0.95821736  0.83074933     0.18500
N1722       N  0.00093129  0.95008354  0.88920704    -0.88200
H1723       H  0.99646029  0.07758386  0.84380133     0.35900
H1724       H  0.97600403  0.06088628  0.81784867     0.41000
H1725       H  0.02124346  0.94899129  0.90016888     0.40600
H1726       H  0.00060144  0.93258826  0.87420711     0.35500
C1727       C  0.97643907  0.13559413  0.99787017    -0.26200
C1728       C  0.00328755  0.12087532  0.00273402    -0.14300
C1729       C  0.02944219  0.13772033  0.00582249     0.36300
C1730       C  0.02788900  0.16857227  0.00352839    -0.25700
C1731       C  0.00100499  0.18328990  0.99877794    -0.14900
C1732       C  0.97496064  0.16639765  0.99517631     0.37400
N1733       N  0.94685751  0.17942738  0.98800693    -0.89200
H1734       H  0.95639591  0.12288963  0.99512002     0.18500
H1735       H  0.04789152  0.18130398  0.00642054     0.18500
N1736       N  0.05771238  0.12467078  0.01223499    -0.88200
H1737       H  0.93978473  0.17026430  0.96805337     0.35900
H1738       H  0.94861325  0.20199096  0.98399583     0.41000
H1739       H  0.05621632  0.10203721  0.01572967     0.40600
H1740       H  0.06513642  0.13348967  0.03223999     0.35500
C1741       C  0.13014134  0.99866065  0.02981100    -0.26200
C1742       C  0.11468835  0.99868237  0.00288827    -0.14300
C1743       C  0.13079638  0.99635879  0.97623690     0.36300
C1744       C  0.16169856  0.99542808  0.97741082    -0.25700
C1745       C  0.17713239  0.99582555  0.00433952    -0.14900
C1746       C  0.16106024  0.99748798  0.03075375     0.37400
N1747       N  0.17604087  0.99921955  0.05855150    -0.89200
H1748       H  0.11814453  0.00041539  0.05032970     0.18500
H1749       H  0.17379834  0.99375363  0.95694900     0.18500
N1750       N  0.11689730  0.99412125  0.94771958    -0.88200
H1751       H  0.16894016  0.98165460  0.07160771     0.35900
H1752       H  0.16973126  0.01885327  0.06885706     0.41000
H1753       H  0.09413476  0.99164908  0.94931819     0.40600
H1754       H  0.12428702  0.97460774  0.93794938     0.35500
C1755       C  0.00073818  0.03480574  0.13457979    -0.26200
C1756       C  0.99912806  0.00793052  0.11920976    -0.14300
C1757       C  0.99797792  0.98119789  0.13542121     0.36300
C1758       C  0.99985423  0.98210019  0.16621132    -0.25700
C1759       C  0.00179705  0.00884659  0.18164788    -0.14900
C1760       C  0.00223623  0.03556534  0.16562805     0.37400
N1761       N  0.00493110  0.06325095  0.18082908    -0.89200
H1762       H  0.00164044  0.05524929  0.12225390     0.18500
H1763       H  0.99895106  0.96151463  0.17831265     0.18500
N1764       N  0.99412547  0.95278434  0.12173346    -0.88200
H1765       H  0.00494763  0.08076692  0.16585431     0.35900
H1766       H  0.02545534  0.06344389  0.19141851     0.41000
H1767       H  0.98976159  0.95449995  0.09925280     0.40600
H1768       H  0.97514646  0.94331930  0.13061599     0.35500
C1769       C  0.98217007  0.63593342  0.48385414    -0.26200
C1770       C  0.00223322  0.61952892  0.50118890    -0.14300
C1771       C  0.02265882  0.63519399  0.51919802     0.36300
C1772       C  0.02273576  0.66629099  0.51890835    -0.25700
C1773       C  0.00263270  0.68224511  0.50166717    -0.14900
C1774       C  0.98215847  0.66687315  0.48401355     0.37400
N1775       N  0.96127192  0.68223356  0.46583948    -0.89200
H1776       H  0.96629746  0.62470548  0.46993975     0.18500
H1777       H  0.03844588  0.67823672  0.53242186     0.18500
N1778       N  0.04330332  0.61973214  0.53776429    -0.88200
H1779       H  0.97285996  0.69572706  0.45126952     0.35900
H1780       H  0.94839251  0.69570489  0.47934862     0.41000
H1781       H  0.03127317  0.60973267  0.55459805     0.40600
H1782       H  0.05769350  0.63448291  0.54812589     0.35500
C1783       C  0.86793222  0.48181569  0.51396460    -0.26200
C1784       C  0.88291295  0.50499798  0.49980735    -0.14300
C1785       C  0.86588812  0.52745614  0.48594070     0.36300
C1786       C  0.83481678  0.52586475  0.48628420    -0.25700
C1787       C  0.82022393  0.50258223  0.50024607    -0.14900
C1788       C  0.83704734  0.48045499  0.51433113     0.37400
N1789       N  0.82325521  0.45654916  0.52955065    -0.89200
H1790       H  0.88026943  0.46441615  0.52482313     0.18500
H1791       H  0.82183632  0.54297899  0.47570535     0.18500
N1792       N  0.87999040  0.55196975  0.47177371    -0.88200
H1793       H  0.81013031  0.44494052  0.51455117     0.35900
H1794       H  0.80960673  0.46535868  0.54584259     0.41000
H1795       H  0.89037352  0.56442199  0.48820247     0.40600
H1796       H  0.86438360  0.56585944  0.46192393     0.35500
C1797       C  0.01347595  0.52980908  0.66079971    -0.26200
C1798       C  0.00108864  0.50628168  0.67640231    -0.14300
C1799       C  0.98832496  0.48264268  0.66079376     0.36300
C1800       C  0.98809467  0.48308611  0.62977629    -0.25700
C1801       C  0.00079441  0.50645656  0.61389174    -0.14900
C1802       C  0.01356313  0.53021479  0.62976345     0.37400
N1803       N  0.02630015  0.55482800  0.61448566    -0.89200
H1804       H  0.02314115  0.54796760  0.67297622     0.18500
H1805       H  0.97825527  0.46480190  0.61795940     0.18500
N1806       N  0.97504615  0.45860597  0.67649607    -0.88200
H1807       H  0.03535748  0.56991820  0.62939931     0.35900
H1808       H  0.00922007  0.56586997  0.60351487     0.41000
H1809       H  0.99183723  0.44725452  0.68756911     0.40600
H1810       H  0.96563369  0.44354356  0.66178063     0.35500
C1811       C  0.13088117  0.50603195  0.52081819    -0.26200
C1812       C  0.11438068  0.49821513  0.49568568    -0.14300
C1813       C  0.12959587  0.48841684  0.47026025     0.36300
C1814       C  0.16062856  0.48645780  0.47077552    -0.25700
C1815       C  0.17690627  0.49395012  0.49605001    -0.14900
C1816       C  0.16171882  0.50388778  0.52129989     0.37400
N1817       N  0.17707711  0.51276650  0.54748795    -0.89200
H1818       H  0.11972466  0.51364801  0.54046016     0.18500
H1819       H  0.17226503  0.47919674  0.45127450     0.18500
N1820       N  0.11364418  0.48097216  0.44383250    -0.88200
H1821       H  0.19217359  0.52921073  0.54193854     0.35900
H1822       H  0.18863231  0.49467133  0.55591291     0.41000
H1823       H  0.12804930  0.47378252  0.42740645     0.40600
H1824       H  0.10374550  0.50028234  0.43593538     0.35500
C1825       C  0.02118992  0.34082845  0.48933235    -0.26200
C1826       C  0.99773944  0.32585994  0.50252127    -0.14300
C1827       C  0.97474189  0.34230131  0.51545227     0.36300
C1828       C  0.97533172  0.37320497  0.51448402    -0.25700
C1829       C  0.99858145  0.38846449  0.50089602    -0.14900
C1830       C  0.02202596  0.37188500  0.48847211     0.37400
N1831       N  0.04685863  0.38648132  0.47545433    -0.89200
H1832       H  0.03902863  0.32815100  0.47978638     0.18500
H1833       H  0.95732499  0.38534143  0.52438334     0.18500
N1834       N  0.95085890  0.32814893  0.53029944    -0.88200
H1835       H  0.06173541  0.37110037  0.46684259     0.35900
H1836       H  0.05804008  0.39756764  0.49230173     0.41000
H1837       H  0.95961410  0.31493512  0.54707381     0.40600
H1838       H  0.93982346  0.31457144  0.51526923     0.35500
C1839       C  0.02034053  0.49571084  0.33727682    -0.26200
C1840       C  0.99490656  0.50479991  0.32214877    -0.14300
C1841       C  0.97006490  0.51413663  0.33821129     0.36300
C1842       C  0.97117134  0.51407919  0.36924166    -0.25700
C1843       C  0.99657415  0.50466952  0.38450597    -0.14900
C1844       C  0.02137896  0.49542750  0.36816872     0.37400
N1845       N  0.04795094  0.48632319  0.38278289    -0.89200
H1846       H  0.03953556  0.48868168  0.32498675     0.18500
H1847       H  0.95202935  0.52118387  0.38154359     0.18500
N1848       N  0.94397109  0.52387100  0.32293061    -0.88200
H1849       H  0.06505160  0.49999696  0.37577209     0.35900
H1850       H  0.05281024  0.46477946  0.37612918     0.41000
H1851       H  0.94939658  0.54291317  0.31117673     0.40600
H1852       H  0.92763040  0.52993707  0.33792727     0.35500
C1853       C  0.52501582  0.86760228  0.49824497    -0.26200
C1854       C  0.49877163  0.88316392  0.50389115    -0.14300
C1855       C  0.47267158  0.86701744  0.50938774     0.36300
C1856       C  0.47335705  0.83599005  0.50833108    -0.25700
C1857       C  0.49956253  0.82060971  0.50268288    -0.14900
C1858       C  0.52573534  0.83657830  0.49773956     0.37400
N1859       N  0.55283269  0.82124519  0.49174063    -0.89200
H1860       H  0.54513908  0.87971621  0.49417239     0.18500
H1861       H  0.45334383  0.82363956  0.51226688     0.18500
N1862       N  0.44534851  0.88200307  0.51516011    -0.88200
H1863       H  0.57008301  0.83618298  0.48874467     0.35900
H1864       H  0.55017388  0.81001416  0.47179249     0.41000
H1865       H  0.44698658  0.89128682  0.53618350     0.40600
H1866       H  0.42795220  0.86696084  0.51616851     0.35500
C1867       C  0.63070944  0.99235767  0.47535831    -0.26200
C1868       C  0.61615743  0.99750992  0.50214776    -0.14300
C1869       C  0.63333086  0.00144807  0.52803018     0.36300
C1870       C  0.66418877  0.00003198  0.52653806    -0.25700
C1871       C  0.67868529  0.99528383  0.49967319    -0.14900
C1872       C  0.66168431  0.99125623  0.47381626     0.37400
N1873       N  0.67592860  0.98561138  0.44615613    -0.89200
H1874       H  0.61781510  0.98923441  0.45543769     0.18500
H1875       H  0.67700335  0.00307462  0.54652711     0.18500
N1876       N  0.62016775  0.00611542  0.55627149    -0.88200
H1877       H  0.66034194  0.98331463  0.42924033     0.35900
H1878       H  0.68686267  0.96538084  0.44793598     0.41000
H1879       H  0.60557913  0.98884970  0.56046595     0.40600
H1880       H  0.60847409  0.02600869  0.55582052     0.35500
C1881       C  0.47509080  0.99277943  0.66316822    -0.26200
C1882       C  0.50124911  0.99933817  0.67832961    -0.14300
C1883       C  0.52692827  0.00570960  0.66216914     0.36300
C1884       C  0.52586131  0.00526323  0.63111713    -0.25700
C1885       C  0.49968004  0.99843217  0.61577874    -0.14900
C1886       C  0.47401151  0.99203153  0.63233634     0.37400
N1887       N  0.44626608  0.98547088  0.61866073    -0.89200
H1888       H  0.45527794  0.98792313  0.67547654     0.18500
H1889       H  0.54565166  0.01019175  0.61882582     0.18500
N1890       N  0.55383344  0.01300966  0.67734581    -0.88200
H1891       H  0.44821362  0.96581541  0.60678846     0.35900
H1892       H  0.44067874  0.00265395  0.60433398     0.41000
H1893       H  0.55027978  0.03271529  0.68875258     0.40600
H1894       H  0.57071117  0.01709542  0.66228947     0.35500
C1895       C  0.47613876  0.12801858  0.48959502    -0.26200
C1896       C  0.50230860  0.11297081  0.49703252    -0.14300
C1897       C  0.52815694  0.12967759  0.50242981     0.36300
C1898       C  0.52717833  0.16051658  0.50058294    -0.25700
C1899       C  0.50086752  0.17549276  0.49395964    -0.14900
C1900       C  0.47511259  0.15905390  0.48814907     0.37400
N1901       N  0.44809454  0.17393424  0.48060618    -0.89200
H1902       H  0.45628030  0.11551006  0.48518925     0.18500
H1903       H  0.54708597  0.17297562  0.50496201     0.18500
N1904       N  0.55590974  0.11606046  0.50915163    -0.88200
H1905       H  0.43119073  0.15873813  0.47705439     0.35900
H1906       H  0.45138752  0.18483538  0.46056690     0.41000
H1907       H  0.56093911  0.10097942  0.49248544     0.40600
H1908       H  0.55422059  0.10491078  0.52921141     0.35500
C1909       C  0.33718798  0.00035296  0.51994357    -0.26200
C1910       C  0.32340217  0.00727738  0.49305085    -0.14300
C1911       C  0.34111219  0.01335561  0.46824602     0.36300
C1912       C  0.37185454  0.01147185  0.47061426    -0.25700
C1913       C  0.38576794  0.00366128  0.49727901    -0.14900
C1914       C  0.36812409  0.99859225  0.52241502     0.37400
N1915       N  0.38157148  0.99213987  0.55044407    -0.89200
H1916       H  0.32367790  0.99611642  0.53909564     0.18500
H1917       H  0.38497120  0.01592549  0.45124209     0.18500
N1918       N  0.32861347  0.02243725  0.44062632    -0.88200
H1919       H  0.36550730  0.98878817  0.56651743     0.35900
H1920       H  0.39346388  0.01079394  0.55694321     0.41000
H1921       H  0.31533794  0.04094699  0.44424863     0.40600
H1922       H  0.31554079  0.00547256  0.43222400     0.35500
C1923       C  0.51638986  0.96900202  0.33898238    -0.26200
C1924       C  0.50841669  0.99428575  0.32300701    -0.14300
C1925       C  0.49881778  0.01949633  0.33831844     0.36300
C1926       C  0.49716198  0.01904110  0.36921002    -0.25700
C1927       C  0.50526651  0.99383105  0.38544796    -0.14900
C1928       C  0.51506883  0.96846826  0.37000034     0.37400
N1929       N  0.52326626  0.94212553  0.38568662    -0.89200
H1930       H  0.52358557  0.94954676  0.32713215     0.18500
H1931       H  0.48969616  0.03870479  0.38053329     0.18500
N1932       N  0.49009313  0.04543423  0.32247967    -0.88200
H1933       H  0.53055230  0.92583726  0.37110434     0.35900
H1934       H  0.50427873  0.93388010  0.39565638     0.41000
H1935       H  0.50323918  0.06292740  0.32970250     0.40600
H1936       H  0.46823044  0.05025603  0.32788192     0.35500
C1937       C  0.51417047  0.62428086  0.02078883    -0.26200
C1938       C  0.50264105  0.61009085  0.99567420    -0.14300
C1939       C  0.49186663  0.62759144  0.97213943     0.36300
C1940       C  0.49253947  0.65851981  0.97431957    -0.25700
C1941       C  0.50364541  0.67240297  0.99963534    -0.14900
C1942       C  0.51467715  0.65514002  0.02292128     0.37400
N1943       N  0.52692635  0.66895943  0.04857063    -0.89200
H1944       H  0.52265643  0.61140390  0.03908086     0.18500
H1945       H  0.48426737  0.67177024  0.95618622     0.18500
N1946       N  0.48077687  0.61418647  0.94575539    -0.88200
H1947       H  0.54878110  0.66189601  0.05084218     0.35900
H1948       H  0.51522948  0.66161391  0.06692185     0.41000
H1949       H  0.49328627  0.62180853  0.92805597     0.40600
H1950       H  0.45904197  0.62128822  0.94260241     0.35500
C1951       C  0.66335611  0.47826198  0.97093821    -0.26200
C1952       C  0.67867025  0.49376608  0.99287759    -0.14300
C1953       C  0.66262706  0.50920440  0.01447334     0.36300
C1954       C  0.63176552  0.50894937  0.01378629    -0.25700
C1955       C  0.61601529  0.49339409  0.99193005    -0.14900
C1956       C  0.63223794  0.47794061  0.97007851     0.37400
N1957       N  0.61728705  0.46216547  0.94696376    -0.89200
H1958       H  0.67577808  0.46648627  0.95432425     0.18500
H1959       H  0.62006264  0.52095866  0.03074257     0.18500
N1960       N  0.67721850  0.52552259  0.03728774    -0.88200
H1961       H  0.63240873  0.45122746  0.93348638     0.35900
H1962       H  0.60669199  0.47775379  0.93361661     0.41000
H1963       H  0.69088756  0.54116584  0.02744497     0.40600
H1964       H  0.69039073  0.51097473  0.04947536     0.35500
C1965       C  0.52080721  0.48512357  0.86489050    -0.26200
C1966       C  0.49559029  0.49361689  0.88069977    -0.14300
C1967       C  0.46995686  0.50184607  0.86482515     0.36300
C1968       C  0.47040931  0.50267571  0.83385823    -0.25700
C1969       C  0.49600467  0.49538381  0.81828304    -0.14900
C1970       C  0.52116824  0.48591743  0.83394808     0.37400
N1971       N  0.54696623  0.47659566  0.81842587    -0.89200
H1972       H  0.54055201  0.47823930  0.87656443     0.18500
H1973       H  0.45073679  0.50932262  0.82192012     0.18500
N1974       N  0.44321414  0.50879027  0.87996733    -0.88200
H1975       H  0.56461262  0.48968024  0.82537102     0.35900
H1976       H  0.55153813  0.45478013  0.82443565     0.41000
H1977       H  0.42688228  0.49425201  0.87264865     0.40600
H1978       H  0.43684460  0.53015635  0.87402275     0.35500
C1979       C  0.47921393  0.48609065  0.12636557    -0.26200
C1980       C  0.50358797  0.49701382  0.11073049    -0.14300
C1981       C  0.52764474  0.50890259  0.12692101     0.36300
C1982       C  0.52644014  0.50990177  0.15794453    -0.25700
C1983       C  0.50190132  0.49931059  0.17325450    -0.14900
C1984       C  0.47812686  0.48717705  0.15719790     0.37400
N1985       N  0.45285814  0.47521533  0.17168025    -0.89200
H1986       H  0.46059724  0.47682240  0.11456185     0.18500
H1987       H  0.54480631  0.51892747  0.17033394     0.18500
N1988       N  0.55335934  0.51961949  0.11200661    -0.88200
H1989       H  0.44273109  0.49197657  0.18380999     0.35900
H1990       H  0.45996417  0.45880967  0.18625370     0.41000
H1991       H  0.56359083  0.50153366  0.10204612     0.40600
H1992       H  0.56858932  0.52822319  0.12708390     0.35500
C1993       C  0.36903695  0.47320144  0.00616903    -0.26200
C1994       C  0.38484918  0.49888350  0.99916770    -0.14300
C1995       C  0.36897749  0.52499460  0.99282110     0.36300
C1996       C  0.33798711  0.52489240  0.99320555    -0.25700
C1997       C  0.32224206  0.49907608  0.99950204    -0.14900
C1998       C  0.33796123  0.47299451  0.00630718     0.37400
N1999       N  0.32228057  0.44647841  0.01355293    -0.89200
H2000       H  0.38095982  0.45306856  0.01117079     0.18500
H2001       H  0.32612793  0.54507382  0.98820775     0.18500
N2002       N  0.38420356  0.55186728  0.98648020    -0.88200
H2003       H  0.33705939  0.42917541  0.01791223     0.35900
H2004       H  0.31080947  0.45035081  0.03301253     0.41000
H2005       H  0.37775931  0.56768349  0.00195062     0.40600
H2006       H  0.37745524  0.55915103  0.96565674     0.35500
C2007       C  0.47156245  0.36595684  0.00466694    -0.26200
C2008       C  0.49752638  0.38032261  0.99581777    -0.14300
C2009       C  0.52228410  0.36300485  0.98785106     0.36300
C2010       C  0.52066428  0.33206963  0.98968772    -0.25700
C2011       C  0.49468305  0.31789407  0.99829196    -0.14900
C2012       C  0.46981590  0.33496879  0.00575307     0.37400
N2013       N  0.44301164  0.32077063  0.01466582    -0.89200
H2014       H  0.45244012  0.37896883  0.01061989     0.18500
H2015       H  0.53964292  0.31881658  0.98376300     0.18500
N2016       N  0.54921633  0.37670770  0.97853996    -0.88200
H2017       H  0.42671833  0.33642487  0.01926692     0.35900
H2018       H  0.44735298  0.30960745  0.03437957     0.41000
H2019       H  0.54547177  0.38545424  0.95753596     0.40600
H2020       H  0.56587561  0.36095076  0.97601780     0.35500
loop_ 
_geom_bond_atom_site_label_1 
_geom_bond_atom_site_label_2 
_geom_bond_distance 
_geom_bond_site_symmetry_2 
_ccdc_geom_bond_type 
Zn1           O5   1.966   1_554  S
Zn1           O6   2.020       .  S
Zn1          O10   2.035       .  S
Zn1          O17   2.028       .  S
Zn2           O5   1.970       .  S
Zn2           O7   2.029       .  S
Zn2           O9   2.030       .  S
Zn2          O13   2.030       .  S
Zn3           O5   1.969       .  S
Zn3           O8   2.037       .  S
Zn3          O11   2.028       .  S
Zn3          O14   2.025       .  S
Zn4           O5   1.972   1_554  S
Zn4          O12   2.032       .  S
Zn4          O15   2.038       .  S
Zn4          O16   2.039       .  S
O6           C18   1.275   1_554  A
O7           C19   1.275       .  A
O8           C20   1.275       .  A
O9           C18   1.275       .  A
O10          C20   1.276   1_554  A
O11          C19   1.275       .  A
O12          C21   1.276   1_554  A
O13          C22   1.275       .  A
O14          C21   1.274       .  A
O15          C22   1.276   1_554  A
O16          C23   1.277       .  A
O17          C23   1.275       .  A
C18        C1938   1.490       .  S
C19        C1966   1.489       .  S
C20        C1955   1.500       .  S
C21        C2008   1.492       .  S
C22        C1994   1.492       .  S
C23        C1980   1.496       .  S
Zn24         O28   1.972   1_545  S
Zn24         O29   2.035       .  S
Zn24         O33   2.038       .  S
Zn24         O40   2.035       .  S
Zn25         O28   1.968       .  S
Zn25         O30   2.027       .  S
Zn25         O32   2.026       .  S
Zn25         O36   2.026       .  S
Zn26         O28   1.969       .  S
Zn26         O31   2.028       .  S
Zn26         O34   2.031       .  S
Zn26         O37   2.039       .  S
Zn27         O28   1.969   1_545  S
Zn27         O35   2.027       .  S
Zn27         O38   2.035       .  S
Zn27         O39   2.027       .  S
O29          C41   1.275   1_545  A
O30          C42   1.276       .  A
O31          C43   1.274       .  A
O32          C41   1.275       .  A
O33          C43   1.276   1_545  A
O34          C42   1.275       .  A
O35          C44   1.275       .  A
O36          C45   1.274       .  A
O37          C44   1.276   1_565  A
O38          C45   1.276   1_545  A
O39          C46   1.275       .  A
O40          C46   1.276       .  A
C41        C1868   1.490       .  S
C42        C1854   1.492       .  S
C43        C1885   1.493       .  S
C44        C1913   1.492       .  S
C45        C1927   1.493       .  S
C46        C1896   1.490       .  S
Zn47         O51   1.969   1_455  S
Zn47         O52   2.044       .  S
Zn47         O56   2.025       .  S
Zn47         O63   2.028       .  S
Zn48         O51   1.963   1_455  S
Zn48         O53   2.021       .  S
Zn48         O55   2.025       .  S
Zn48         O59   2.012       .  S
Zn49         O51   1.974       .  S
Zn49         O54   2.035       .  S
Zn49         O57   2.042       .  S
Zn49         O60   2.043       .  S
Zn50         O51   1.976       .  S
Zn50         O58   2.039       .  S
Zn50         O61   2.037       .  S
Zn50         O62   2.048       .  S
O52          C64   1.276       .  A
O53          C65   1.274   1_455  A
O54          C66   1.277   1_655  A
O55          C64   1.273       .  A
O56          C66   1.275       .  A
O57          C65   1.277       .  A
O58          C67   1.276       .  A
O59          C68   1.274   1_455  A
O60          C67   1.277       .  A
O61          C68   1.277       .  A
O62          C69   1.278   1_655  A
O63          C69   1.275       .  A
C64        C1812   1.495       .  S
C65        C1829   1.496       .  S
C66        C1801   1.494       .  S
C67        C1784   1.502       .  S
C68        C1843   1.487       .  S
C69        C1770   1.503       .  S
Zn70         O74   1.965   1_565  S
Zn70         O75   2.029       .  S
Zn70         O79   2.011       .  S
Zn70         O86   2.018       .  S
Zn71         O74   1.966   1_666  S
Zn71         O76   2.029       .  S
Zn71         O78   2.027       .  S
Zn71         O82   2.027       .  S
Zn72         O74   1.973   1_655  S
Zn72         O77   2.041       .  S
Zn72         O80   2.037       .  S
Zn72         O83   2.028       .  S
Zn73         O74   1.969   1_556  S
Zn73         O81   2.030       .  S
Zn73         O84   2.029       .  S
Zn73         O85   2.030       .  S
O75          C87   1.273   1_455  A
O76          C88   1.275   1_566  A
O77          C89   1.276       .  A
O78          C87   1.274   1_556  A
O79          C89   1.274   1_465  A
O80          C88   1.276       .  A
O81          C90   1.275   1_556  A
O82          C91   1.275   1_665  A
O83          C90   1.275   1_655  A
O84          C91   1.275       .  A
O85          C92   1.275   1_556  A
O86          C92   1.274   1_565  A
C87        C1700   1.487       .  S
C88        C1686   1.482       .  S
C89        C1756   1.482       .  S
C90        C1728   1.483       .  S
C91        C1714   1.483   1_455  S
C92        C1742   1.482   1_545  S
C93        C1672   1.484       .  S
C93          C94   1.402   1_554  A
C93          C98   1.408       .  A
C94          C95   1.400       .  A
C94          H99   1.084       .  S
C95        C1658   1.479       .  S
C95          C96   1.406       .  A
C96          C97   1.405       .  A
C96         H100   1.084       .  S
C97        C1952   1.483       .  S
C97          C98   1.404   1_556  A
C98         H101   1.084       .  S
C102       C1630   1.483       .  S
C102        C103   1.407       .  A
C102        C107   1.401   1_554  A
C103        C104   1.407   1_554  A
C103        H108   1.084       .  S
C104       C1997   1.490       .  S
C104        C105   1.407       .  A
C105        C106   1.407       .  A
C105        H109   1.083       .  S
C106       C1644   1.483       .  S
C106        C107   1.400       .  A
C107        H110   1.084       .  S
C111       C1616   1.481       .  S
C111        C112   1.407       .  A
C111        C116   1.400       .  A
C112        C113   1.404       .  A
C112        H117   1.084       .  S
C113       C1840   1.481       .  S
C113        C114   1.403   1_655  A
C114        C115   1.404       .  A
C114        H118   1.084       .  S
C115       C1602   1.478       .  S
C115        C116   1.400   1_455  A
C116        H119   1.084       .  S
C120       C1588   1.474       .  S
C120        C121   1.404       .  A
C120        C125   1.399   1_556  A
C121        C122   1.406       .  A
C121        H126   1.084       .  S
C122       C1731   1.488       .  S
C122        C123   1.407   1_456  A
C123        C124   1.404       .  A
C123        H127   1.084       .  S
C124       C1574   1.475       .  S
C124        C125   1.398   1_655  A
C125        H128   1.084       .  S
C129       C1563   1.491       .  S
C129        C130   1.404       .  A
C129        C134   1.409       .  A
C130        C131   1.404   1_455  A
C130        H135   1.084       .  S
C131       C1549   1.484       .  S
C131        C132   1.406       .  A
C132        C133   1.403   1_655  A
C132        H136   1.084       .  S
C133       C1798   1.483       .  S
C133        C134   1.404       .  A
C134        H137   1.083       .  S
Zn138       O142   1.974       .  S
Zn138       O143   2.052       .  S
Zn138       O147   2.046       .  S
Zn138       O154   2.064       .  S
Zn139       O142   1.958       .  S
Zn139       O144   2.015       .  S
Zn139       O146   1.994       .  S
Zn139       O150   2.030       .  S
Zn140       O142   1.955       .  S
Zn140       O145   1.981       .  S
Zn140       O148   2.014       .  S
Zn140       O151   2.007       .  S
Zn141       O142   1.942       .  S
Zn141       O149   2.004       .  S
Zn141       O152   1.986       .  S
Zn141       O153   1.990       .  S
O143        C155   1.278       .  A
O144        C156   1.273       .  A
O145        C157   1.270       .  A
O146        C155   1.272       .  A
O147        C157   1.278       .  A
O148        C156   1.271       .  A
O149        C158   1.271       .  A
O150        C159   1.275       .  A
O151        C158   1.271       .  A
O152        C159   1.269       .  A
O153        C160   1.271       .  A
O154        C160   1.279       .  A
C155       C1647   1.475       .  S
C156       C1518   1.492       .  S
C157       C1591   1.467       .  S
C158       C1504   1.482       .  S
C159       C1532   1.489       .  S
C160       C1560   1.483       .  S
C161       C1490   1.482       .  S
C161        C162   1.400   1_556  A
C161        C166   1.405       .  A
C162        C163   1.399   1_655  A
C162        H167   1.084       .  S
C163       C1479   1.478       .  S
C163        C164   1.405       .  A
C164        C165   1.409   1_455  A
C164        H168   1.084       .  S
C165       C1703   1.496   1_655  S
C165        C166   1.409   1_554  A
C166        H169   1.083       .  S
Zn170       O174   1.929       .  S
Zn170       O175   1.980       .  S
Zn170       O179   1.978       .  S
Zn170       O186   1.981       .  S
Zn171       O174   1.958       .  S
Zn171       O176   2.012       .  S
Zn171       O178   2.019       .  S
Zn171       O182   2.022       .  S
Zn172       O174   1.964       .  S
Zn172       O177   2.030       .  S
Zn172       O180   2.020       .  S
Zn172       O183   2.009       .  S
Zn173       O174   1.963       .  S
Zn173       O181   2.032       .  S
Zn173       O184   2.032       .  S
Zn173       O185   2.037       .  S
O175        C187   1.268       .  A
O176        C188   1.273       .  A
O177        C189   1.271       .  A
O178        C187   1.271       .  A
O179        C189   1.268       .  A
O180        C188   1.275       .  A
O181        C190   1.278       .  A
O182        C191   1.275       .  A
O183        C190   1.274       .  A
O184        C191   1.277       .  A
O185        C192   1.273       .  A
O186        C192   1.269       .  A
C187       C1462   1.462       .  S
C188       C1546   1.486       .  S
C189       C1437   1.466       .  S
C190       C1493   1.485       .  S
C191       C1661   1.489       .  S
C192       C1448   1.467       .  S
Zn193       O197   1.972       .  S
Zn193       O198   2.052       .  S
Zn193       O202   2.044       .  S
Zn193       O209   2.050       .  S
Zn194       O197   1.939       .  S
Zn194       O199   1.992       .  S
Zn194       O201   1.974       .  S
Zn194       O205   1.985       .  S
Zn195       O197   1.956       .  S
Zn195       O200   1.994       .  S
Zn195       O203   2.018       .  S
Zn195       O206   2.022       .  S
Zn196       O197   1.948       .  S
Zn196       O204   2.000       .  S
Zn196       O207   2.016       .  S
Zn196       O208   1.977       .  S
O198        C210   1.278       .  A
O199        C211   1.271       .  A
O200        C212   1.272       .  A
O201        C210   1.269       .  A
O202        C212   1.277       .  A
O203        C211   1.272       .  A
O204        C213   1.272       .  A
O205        C214   1.268       .  A
O206        C213   1.273       .  A
O207        C214   1.273       .  A
O208        C215   1.270       .  A
O209        C215   1.278       .  A
C210       C1675   1.475       .  S
C211       C1406   1.486       .  S
C212       C1577   1.470       .  S
C213       C1395   1.490       .  S
C214       C1420   1.485       .  S
C215       C1619   1.474       .  S
Zn216       O220   1.910       .  S
Zn216       O221   1.952       .  S
Zn216       O225   1.969       .  S
Zn216       O232   1.957       .  S
Zn217       O220   1.970       .  S
Zn217       O222   2.018       .  S
Zn217       O224   2.042       .  S
Zn217       O228   2.001       .  S
Zn218       O220   1.958       .  S
Zn218       O223   2.036       .  S
Zn218       O226   2.016       .  S
Zn218       O229   2.013       .  S
Zn219       O220   1.972       .  S
Zn219       O227   2.034       .  S
Zn219       O230   2.027       .  S
Zn219       O231   2.056       .  S
O221        C233   1.264       .  A
O222        C234   1.276       .  A
O223        C235   1.272       .  A
O224        C233   1.271       .  A
O225        C235   1.268       .  A
O226        C234   1.275       .  A
O227        C236   1.278       .  A
O228        C237   1.274       .  A
O229        C236   1.275       .  A
O230        C237   1.277       .  A
O231        C238   1.274       .  A
O232        C238   1.266       .  A
C233       C1350   1.470       .  S
C234       C1476   1.486       .  S
C235       C1364   1.471       .  S
C236       C1633   1.485       .  S
C237       C1605   1.479       .  S
C238       C1381   1.470       .  S
C239       C1325   1.483       .  S
C239        C240   1.401   1_554  A
C239        C244   1.407       .  A
C240        C241   1.400       .  A
C240        H245   1.084       .  S
C241       C1339   1.474       .  S
C241        C242   1.403       .  A
C242        C243   1.404       .  A
C242        H246   1.084       .  S
C243       C2011   1.485       .  S
C243        C244   1.406   1_556  A
C244        H247   1.083       .  S
C248       C1308   1.482       .  S
C248        C249   1.407       .  A
C248        C253   1.402       .  A
C249        C250   1.404       .  A
C249        H254   1.084       .  S
C250       C1941   1.479   1_554  S
C250        C251   1.401   1_554  A
C251        C252   1.402       .  A
C251        H255   1.084       .  S
C252       C1294   1.474       .  S
C252        C253   1.400   1_556  A
C253        H256   1.084       .  S
C257       C1280   1.479       .  S
C257        C258   1.402       .  A
C257        C262   1.402       .  A
C258        C259   1.402       .  A
C258        H263   1.084       .  S
C259       C1924   1.485       .  S
C259        C260   1.406   1_565  A
C260        C261   1.411       .  A
C260        H264   1.083       .  S
C261       C1266   1.493       .  S
C261        C262   1.406   1_545  A
C262        H265   1.084       .  S
C266       C1255   1.476       .  S
C266        C267   1.400       .  A
C266        C271   1.401   1_546  A
C267        C268   1.403   1_546  A
C267        H272   1.084       .  S
C268       C1745   1.490       .  S
C268        C269   1.409       .  A
C269        C270   1.409       .  A
C269        H273   1.083       .  S
C270       C1238   1.485       .  S
C270        C271   1.403       .  A
C271        H274   1.084       .  S
C275       C1227   1.475       .  S
C275        C276   1.399       .  A
C275        C280   1.404       .  A
C276        C277   1.402   1_566  A
C276        H281   1.084       .  S
C277       C1213   1.485       .  S
C277        C278   1.408       .  A
C278        C279   1.406       .  A
C278        H282   1.084       .  S
C279       C1689   1.489       .  S
C279        C280   1.407   1_544  A
C280        H283   1.083       .  S
Zn284       O288   1.931       .  S
Zn284       O289   1.984       .  S
Zn284       O293   1.982       .  S
Zn284       O300   1.993       .  S
Zn285       O288   1.959       .  S
Zn285       O290   2.017       .  S
Zn285       O292   2.019       .  S
Zn285       O296   2.018       .  S
Zn286       O288   1.963       .  S
Zn286       O291   2.039       .  S
Zn286       O294   2.019       .  S
Zn286       O297   2.024       .  S
Zn287       O288   1.957       .  S
Zn287       O295   2.007       .  S
Zn287       O298   2.014       .  S
Zn287       O299   2.016       .  S
O289        C301   1.269       .  A
O290        C302   1.275       .  A
O291        C303   1.273       .  A
O292        C301   1.271       .  A
O293        C303   1.268       .  A
O294        C302   1.275       .  A
O295        C304   1.274       .  A
O296        C305   1.275       .  A
O297        C304   1.276       .  A
O298        C305   1.274       .  A
O299        C306   1.270       .  A
O300        C306   1.270       .  A
C301       C1451   1.462       .  S
C302       C1224   1.489       .  S
C303       C1168   1.471       .  S
C304       C1196   1.482       .  S
C305       C1297   1.489       .  S
C306       C1182   1.464       .  S
C307       C1154   1.479       .  S
C307        C308   1.405       .  A
C307        C312   1.401   1_545  A
C308        C309   1.406   1_545  A
C308        H313   1.084       .  S
C309       C1882   1.486       .  S
C309        C310   1.405       .  A
C310        C311   1.405       .  A
C310        H314   1.084       .  S
C311       C1199   1.478       .  S
C311        C312   1.401       .  A
C312        H315   1.084       .  S
Zn316       O320   1.932       .  S
Zn316       O321   1.979       .  S
Zn316       O325   1.982       .  S
Zn316       O332   1.988       .  S
Zn317       O320   1.969       .  S
Zn317       O322   2.027       .  S
Zn317       O324   2.030       .  S
Zn317       O328   2.019       .  S
Zn318       O320   1.959       .  S
Zn318       O323   2.018       .  S
Zn318       O326   2.016       .  S
Zn318       O329   2.020       .  S
Zn319       O320   1.959       .  S
Zn319       O327   2.013       .  S
Zn319       O330   2.004       .  S
Zn319       O331   2.035       .  S
O321        C333   1.269       .  A
O322        C334   1.276       .  A
O323        C335   1.272       .  A
O324        C333   1.272       .  A
O325        C335   1.269       .  A
O326        C334   1.273       .  A
O327        C336   1.274       .  A
O328        C337   1.275       .  A
O329        C336   1.275       .  A
O330        C337   1.275       .  A
O331        C338   1.271       .  A
O332        C338   1.268       .  A
C333       C1126   1.464       .  S
C334       C1157   1.492       .  S
C335       C1140   1.465       .  S
C336       C1336   1.488       .  S
C337       C1252   1.485       .  S
C338       C1521   1.468       .  S
Zn339       O343   1.921       .  S
Zn339       O344   1.976       .  S
Zn339       O348   1.988       .  S
Zn339       O355   1.983       .  S
Zn340       O343   1.963       .  S
Zn340       O345   2.026       .  S
Zn340       O347   2.039       .  S
Zn340       O351   2.020       .  S
Zn341       O343   1.958       .  S
Zn341       O346   2.037       .  S
Zn341       O349   2.030       .  S
Zn341       O352   2.034       .  S
Zn342       O343   1.963       .  S
Zn342       O350   2.014       .  S
Zn342       O353   2.010       .  S
Zn342       O354   2.038       .  S
O344        C356   1.269       .  A
O345        C357   1.276       .  A
O346        C358   1.274       .  A
O347        C356   1.273       .  A
O348        C358   1.270       .  A
O349        C357   1.276       .  A
O350        C359   1.274       .  A
O351        C360   1.275       .  A
O352        C359   1.278       .  A
O353        C360   1.275       .  A
O354        C361   1.272       .  A
O355        C361   1.269       .  A
C356       C1367   1.474       .  S
C357       C1241   1.487       .  S
C358       C1101   1.469       .  S
C359       C1283   1.486       .  S
C360       C1311   1.483       .  S
C361       C1115   1.471       .  S
Zn362       O366   1.948       .  S
Zn362       O367   1.978       .  S
Zn362       O371   1.999       .  S
Zn362       O378   2.002       .  S
Zn363       O366   1.976       .  S
Zn363       O368   2.054       .  S
Zn363       O370   2.061       .  S
Zn363       O374   2.065       .  S
Zn364       O366   1.954       .  S
Zn364       O369   2.014       .  S
Zn364       O372   1.986       .  S
Zn364       O375   2.015       .  S
Zn365       O366   1.946       .  S
Zn365       O373   2.003       .  S
Zn365       O376   1.987       .  S
Zn365       O377   1.994       .  S
O367        C379   1.270       .  A
O368        C380   1.279       .  A
O369        C381   1.272       .  A
O370        C379   1.279       .  A
O371        C381   1.269       .  A
O372        C380   1.272       .  A
O373        C382   1.271       .  A
O374        C383   1.280       .  A
O375        C382   1.273       .  A
O376        C383   1.271       .  A
O377        C384   1.270       .  A
O378        C384   1.270       .  A
C379       C1322   1.476       .  S
C380       C1210   1.477       .  S
C381       C1409   1.488       .  S
C382       C1073   1.489       .  S
C383       C1269   1.483       .  S
C384       C1087   1.485       .  S
C385       C1056   1.480       .  S
C385        C386   1.406       .  A
C385        C390   1.399       .  A
C386        C387   1.406       .  A
C386        H391   1.084       .  S
C387       C1983   1.485       .  S
C387        C388   1.406       .  A
C388        C389   1.406       .  A
C388        H392   1.084       .  S
C389       C1042   1.477       .  S
C389        C390   1.398       .  A
C390        H393   1.084       .  S
C394       C1028   1.485       .  S
C394        C395   1.409       .  A
C394        C399   1.401       .  A
C395        C396   1.405       .  A
C395        H400   1.084       .  S
C396       C1787   1.487       .  S
C396        C397   1.405       .  A
C397        C398   1.410       .  A
C397        H401   1.083       .  S
C398       C1014   1.488       .  S
C398        C399   1.402       .  A
C399        H402   1.084       .  S
Zn403       O407   1.945       .  S
Zn403       O408   1.994       .  S
Zn403       O412   2.001       .  S
Zn403       O419   1.970       .  S
Zn404       O407   1.942       .  S
Zn404       O409   1.999       .  S
Zn404       O411   2.002       .  S
Zn404       O415   1.979       .  S
Zn405       O407   1.943       .  S
Zn405       O410   1.987       .  S
Zn405       O413   2.004       .  S
Zn405       O416   1.957       .  S
Zn406       O407   1.975       .  S
Zn406       O414   2.060       .  S
Zn406       O417   2.059       .  S
Zn406       O418   2.067       .  S
O408        C420   1.270       .  A
O409        C421   1.271       .  A
O410        C422   1.269       .  A
O411        C420   1.273       .  A
O412        C422   1.270       .  A
O413        C421   1.270       .  A
O414        C423   1.280       .  A
O415        C424   1.270       .  A
O416        C423   1.267       .  A
O417        C424   1.279       .  A
O418        C425   1.279       .  A
O419        C425   1.269       .  A
C420       C1423   1.484       .  S
C421       C1084   1.485       .  S
C422        C986   1.481       .  S
C423       C1000   1.470       .  S
C424       C1059   1.473       .  S
C425       C1031   1.478       .  S
C426        C972   1.487       .  S
C426        C427   1.408       .  A
C426        C431   1.400       .  A
C427        C428   1.406       .  A
C427        H432   1.084       .  S
C428       C1899   1.488       .  S
C428        C429   1.406       .  A
C429        C430   1.406       .  A
C429        H433   1.083       .  S
C430       C1003   1.480       .  S
C430        C431   1.399       .  A
C431        H434   1.084       .  S
C435        C958   1.478       .  S
C435        C436   1.400       .  A
C435        C440   1.405       .  A
C436        C437   1.401       .  A
C436        H441   1.084       .  S
C437        C944   1.484       .  S
C437        C438   1.407       .  A
C438        C439   1.404       .  A
C438        H442   1.084       .  S
C439       C1857   1.486       .  S
C439        C440   1.406       .  A
C440        H443   1.084       .  S
Zn444       O448   1.924       .  S
Zn444       O449   1.995       .  S
Zn444       O453   1.980       .  S
Zn444       O460   1.992       .  S
Zn445       O448   1.965       .  S
Zn445       O450   2.021       .  S
Zn445       O452   2.029       .  S
Zn445       O456   2.010       .  S
Zn446       O448   1.969       .  S
Zn446       O451   2.044       .  S
Zn446       O454   2.023       .  S
Zn446       O457   2.035       .  S
Zn447       O448   1.960       .  S
Zn447       O455   2.017       .  S
Zn447       O458   2.011       .  S
Zn447       O459   2.033       .  S
O449        C461   1.270       .  A
O450        C462   1.276       .  A
O451        C463   1.274       .  A
O452        C461   1.272       .  A
O453        C463   1.271       .  A
O454        C462   1.276       .  A
O455        C464   1.276       .  A
O456        C465   1.275       .  A
O457        C464   1.277       .  A
O458        C465   1.274       .  A
O459        C466   1.272       .  A
O460        C466   1.271       .  A
C461       C1112   1.475       .  S
C462        C961   1.486       .  S
C463        C916   1.475       .  S
C464        C930   1.488       .  S
C465       C1045   1.485       .  S
C466       C1378   1.473       .  S
C467        C902   1.486       .  S
C467        C468   1.408       .  A
C467        C472   1.403       .  A
C468        C469   1.407       .  A
C468        H473   1.084       .  S
C469       C1815   1.488       .  S
C469        C470   1.406       .  A
C470        C471   1.406       .  A
C470        H474   1.084       .  S
C471        C933   1.482       .  S
C471        C472   1.401       .  A
C472        H475   1.084       .  S
C476        C874   1.487       .  S
C476        C477   1.409       .  A
C476        C481   1.403       .  A
C477        C478   1.405       .  A
C477        H482   1.083       .  S
C478       C1969   1.483       .  S
C478        C479   1.402       .  A
C479        C480   1.405       .  A
C479        H483   1.083       .  S
C480        C891   1.479       .  S
C480        C481   1.399       .  A
C481        H484   1.084       .  S
Zn485       O489   1.975       .  S
Zn485       O490   2.061       .  S
Zn485       O494   2.056       .  S
Zn485       O501   2.047       .  S
Zn486       O489   1.945       .  S
Zn486       O491   2.006       .  S
Zn486       O493   1.971       .  S
Zn486       O497   1.989       .  S
Zn487       O489   1.942       .  S
Zn487       O492   1.972       .  S
Zn487       O495   1.990       .  S
Zn487       O498   1.999       .  S
Zn488       O489   1.953       .  S
Zn488       O496   2.024       .  S
Zn488       O499   2.028       .  S
Zn488       O500   2.000       .  S
O490        C502   1.279       .  A
O491        C503   1.270       .  A
O492        C504   1.269       .  A
O493        C502   1.269       .  A
O494        C504   1.278       .  A
O495        C503   1.269       .  A
O496        C505   1.275       .  A
O497        C506   1.270       .  A
O498        C505   1.269       .  A
O499        C506   1.274       .  A
O500        C507   1.273       .  A
O501        C507   1.278       .  A
C502        C975   1.480       .  S
C503       C1143   1.474       .  S
C504        C888   1.471       .  S
C505       C1535   1.490       .  S
C506        C863   1.482       .  S
C507        C905   1.477       .  S
Zn508       O512   1.950       .  S
Zn508       O513   2.005       .  S
Zn508       O517   2.016       .  S
Zn508       O524   1.986       .  S
Zn509       O512   1.940       .  S
Zn509       O514   2.001       .  S
Zn509       O516   1.988       .  S
Zn509       O520   1.977       .  S
Zn510       O512   1.941       .  S
Zn510       O515   1.996       .  S
Zn510       O518   1.999       .  S
Zn510       O521   1.972       .  S
Zn511       O512   1.971       .  S
Zn511       O519   2.040       .  S
Zn511       O522   2.052       .  S
Zn511       O523   2.052       .  S
O513        C525   1.271       .  A
O514        C526   1.270       .  A
O515        C527   1.270       .  A
O516        C525   1.269       .  A
O517        C527   1.272       .  A
O518        C526   1.271       .  A
O519        C528   1.277       .  A
O520        C529   1.270       .  A
O521        C528   1.270       .  A
O522        C529   1.278       .  A
O523        C530   1.278       .  A
O524        C530   1.272       .  A
C525       C1465   1.483       .  S
C526       C1185   1.482       .  S
C527        C846   1.487       .  S
C528        C947   1.473       .  S
C529        C877   1.476       .  S
C530       C1017   1.478       .  S
C531        C818   1.478       .  S
C531        C532   1.407       .  A
C531        C536   1.398       .  A
C532        C533   1.407       .  A
C532        H537   1.084       .  S
C533       C1910   1.487       .  S
C533        C534   1.405   1_545  A
C534        C535   1.404       .  A
C534        H538   1.083       .  S
C535        C832   1.475       .  S
C535        C536   1.398   1_565  A
C536        H539   1.085       .  S
C540        C804   1.486       .  S
C540        C541   1.407       .  A
C540        C545   1.403   1_545  A
C541        C542   1.406   1_545  A
C541        H546   1.083       .  S
C542       C1871   1.492       .  S
C542        C543   1.407       .  A
C543        C544   1.409       .  A
C543        H547   1.084       .  S
C544        C790   1.488       .  S
C544        C545   1.402       .  A
C545        H548   1.084       .  S
C549        C762   1.478       .  S
C549        C550   1.400   1_455  A
C549        C554   1.404       .  A
C550        C551   1.403       .  A
C550        H555   1.084       .  S
C551        C776   1.489       .  S
C551        C552   1.409       .  A
C552        C553   1.406       .  A
C552        H556   1.084       .  S
C553       C1826   1.484       .  S
C553        C554   1.404   1_655  A
C554        H557   1.084       .  S
C558        C748   1.480       .  S
C558        C559   1.403   1_565  A
C558        C563   1.402       .  A
C559        C560   1.402   1_455  A
C559        H564   1.084       .  S
C560        C734   1.484       .  S
C560        C561   1.408       .  A
C561        C562   1.408   1_655  A
C561        H565   1.083       .  S
C562       C1759   1.491       .  S
C562        C563   1.405   1_545  A
C563        H566   1.084       .  S
C567        C709   1.478       .  S
C567        C568   1.403       .  A
C567        C572   1.402       .  A
C568        C569   1.401       .  A
C568        H573   1.084       .  S
C569       C1773   1.483       .  S
C569        C570   1.405   1_455  A
C570        C571   1.411       .  A
C570        H574   1.084       .  S
C571        C720   1.491       .  S
C571        C572   1.404   1_655  A
C572        H575   1.084       .  S
Zn576       O580   1.966       .  S
Zn576       O581   2.022       .  S
Zn576       O585   2.026       .  S
Zn576       O592   2.025       .  S
Zn577       O580   1.961       .  S
Zn577       O582   2.004       .  S
Zn577       O584   2.015       .  S
Zn577       O588   2.037       .  S
Zn578       O580   1.970       .  S
Zn578       O583   2.015       .  S
Zn578       O586   2.013       .  S
Zn578       O589   2.045       .  S
Zn579       O580   1.924       .  S
Zn579       O587   1.971       .  S
Zn579       O590   1.986       .  S
Zn579       O591   1.982       .  S
O581        C593   1.274       .  A
O582        C594   1.274       .  A
O583        C595   1.275       .  A
O584        C593   1.275       .  A
O585        C595   1.276       .  A
O586        C594   1.274       .  A
O587        C596   1.268       .  A
O588        C597   1.272       .  A
O589        C596   1.272       .  A
O590        C597   1.269       .  A
O591        C598   1.271       .  A
O592        C598   1.272       .  A
C593        C751   1.484       .  S
C594        C835   1.481       .  S
C595        C706   1.489       .  S
C596        C919   1.473       .  S
C597       C1098   1.468       .  S
C598       C1353   1.467       .  S
Zn599       O603   1.976       .  S
Zn599       O604   2.068       .  S
Zn599       O608   2.063       .  S
Zn599       O615   2.063       .  S
Zn600       O603   1.946       .  S
Zn600       O605   1.998       .  S
Zn600       O607   1.980       .  S
Zn600       O611   1.999       .  S
Zn601       O603   1.953       .  S
Zn601       O606   1.986       .  S
Zn601       O609   2.005       .  S
Zn601       O612   2.019       .  S
Zn602       O603   1.951       .  S
Zn602       O610   2.006       .  S
Zn602       O613   2.011       .  S
Zn602       O614   1.990       .  S
O604        C616   1.280       .  A
O605        C617   1.270       .  A
O606        C618   1.271       .  A
O607        C616   1.270       .  A
O608        C618   1.280       .  A
O609        C617   1.272       .  A
O610        C619   1.272       .  A
O611        C620   1.271       .  A
O612        C619   1.273       .  A
O613        C620   1.271       .  A
O614        C621   1.271       .  A
O615        C621   1.280       .  A
C616        C807   1.479       .  S
C617        C989   1.484       .  S
C618        C779   1.479       .  S
C619       C1392   1.489       .  S
C620       C1070   1.488       .  S
C621        C737   1.478       .  S
C622        C678   1.475       .  S
C622        C623   1.397       .  A
C622        C627   1.402       .  A
C623        C624   1.401   1_445  A
C623        H628   1.083       .  S
C624        C692   1.492       .  S
C624        C625   1.411       .  A
C625        C626   1.410   1_565  A
C625        H629   1.083       .  S
C626       C1717   1.494       .  S
C626        C627   1.407   1_655  A
C627        H630   1.083       .  S
Zn631       O635   1.981       .  S
Zn631       O636   2.061       .  S
Zn631       O640   2.069       .  S
Zn631       O647   2.073       .  S
Zn632       O635   1.957       .  S
Zn632       O637   2.025       .  S
Zn632       O639   1.992       .  S
Zn632       O643   2.019       .  S
Zn633       O635   1.944       .  S
Zn633       O638   1.976       .  S
Zn633       O641   1.987       .  S
Zn633       O644   2.000       .  S
Zn634       O635   1.945       .  S
Zn634       O642   2.003       .  S
Zn634       O645   2.012       .  S
Zn634       O646   1.972       .  S
O636        C648   1.280       .  A
O637        C649   1.273       .  A
O638        C650   1.269       .  A
O639        C648   1.272       .  A
O640        C650   1.279       .  A
O641        C649   1.270       .  A
O642        C651   1.271       .  A
O643        C652   1.272       .  A
O644        C651   1.271       .  A
O645        C652   1.272       .  A
O646        C653   1.269       .  A
O647        C653   1.281       .  A
C648        C793   1.477       .  S
C649        C849   1.485       .  S
C650        C723   1.482       .  S
C651       C1434   1.477       .  S
C652       C1171   1.488       .  S
C653        C695   1.484       .  S
Zn654       O658   1.926       .  S
Zn654       O659   1.983       .  S
Zn654       O663   1.986       .  S
Zn654       O670   1.983       .  S
Zn655       O658   1.964       .  S
Zn655       O660   2.016       .  S
Zn655       O662   2.026       .  S
Zn655       O666   2.018       .  S
Zn656       O658   1.962       .  S
Zn656       O661   2.030       .  S
Zn656       O664   2.020       .  S
Zn656       O667   2.032       .  S
Zn657       O658   1.957       .  S
Zn657       O665   2.007       .  S
Zn657       O668   2.010       .  S
Zn657       O669   2.029       .  S
O659        C671   1.269       .  A
O660        C672   1.275       .  A
O661        C673   1.272       .  A
O662        C671   1.271       .  A
O663        C673   1.269       .  A
O664        C672   1.276       .  A
O665        C674   1.274       .  A
O666        C675   1.276       .  A
O667        C674   1.276       .  A
O668        C675   1.273       .  A
O669        C676   1.271       .  A
O670        C676   1.269       .  A
C671       C1129   1.463       .  S
C672        C681   1.484       .  S
C673       C1507   1.467       .  S
C674        C765   1.488       .  S
C675        C821   1.482       .  S
C676        C860   1.467       .  S
C677        C678   1.399       .  A
C677        C682   1.406       .  A
C677        H684   1.084       .  S
C678        C679   1.411       .  A
C679        C680   1.397       .  A
C679        N686   1.433   1_455  S
C680        C681   1.404       .  A
C680        H685   1.084       .  S
C681        C682   1.418       .  A
C682        N683   1.438       .  S
N683        H687   1.046       .  S
N683        H688   1.046       .  S
N686        H689   1.050       .  S
N686        H690   1.040       .  S
C691        C692   1.402       .  A
C691        C696   1.404       .  A
C691        H698   1.083       .  S
C692        C693   1.416       .  A
C693        C694   1.406       .  A
C693        N700   1.432   1_565  S
C694        C695   1.402       .  A
C694        H699   1.084       .  S
C695        C696   1.417       .  A
C696        N697   1.439       .  S
N697        H701   1.046       .  S
N697        H702   1.045       .  S
N700        H703   1.045       .  S
N700        H704   1.046       .  S
C705        C706   1.408       .  A
C705        C710   1.398       .  A
C705        H712   1.084       .  S
C706        C707   1.417       .  A
C707        C708   1.407       .  A
C707        N714   1.438       .  S
C708        C709   1.402       .  A
C708        H713   1.084       .  S
C709        C710   1.410       .  A
C710        N711   1.433       .  S
N711        H715   1.045       .  S
N711        H716   1.045       .  S
N714        H717   1.046       .  S
N714        H718   1.046       .  S
C719        C720   1.402       .  A
C719        C724   1.403       .  A
C719        H726   1.084       .  S
C720        C721   1.417       .  A
C721        C722   1.411       .  A
C721        N728   1.438   1_655  S
C722        C723   1.402       .  A
C722        H727   1.084       .  S
C723        C724   1.414       .  A
C724        N725   1.439       .  S
N725        H729   1.046       .  S
N725        H730   1.045       .  S
N728        H731   1.046       .  S
N728        H732   1.045       .  S
C733        C734   1.404       .  A
C733        C738   1.406       .  A
C733        H740   1.084       .  S
C734        C735   1.412       .  A
C735        C736   1.399       .  A
C735        N742   1.433       .  S
C736        C737   1.405       .  A
C736        H741   1.084       .  S
C737        C738   1.418       .  A
C738        N739   1.438       .  S
N739        H743   1.045       .  S
N739        H744   1.043       .  S
N742        H745   1.045   1_545  S
N742        H746   1.044       .  S
C747        C748   1.403       .  A
C747        C752   1.400       .  A
C747        H754   1.084       .  S
C748        C749   1.408       .  A
C749        C750   1.405       .  A
C749        N756   1.438   1_565  S
C750        C751   1.406       .  A
C750        H755   1.084       .  S
C751        C752   1.418       .  A
C752        N753   1.433       .  S
N753        H757   1.045       .  S
N753        H758   1.046       .  S
N756        H759   1.046       .  S
N756        H760   1.046       .  S
C761        C762   1.402       .  A
C761        C766   1.404       .  A
C761        H768   1.084       .  S
C762        C763   1.410       .  A
C763        C764   1.399       .  A
C763        N770   1.433       .  S
C764        C765   1.409       .  A
C764        H769   1.084       .  S
C765        C766   1.413       .  A
C766        N767   1.432       .  S
N767        H771   1.046       .  S
N767        H772   1.045       .  S
N770        H773   1.051       .  S
N770        H774   1.039       .  S
C775        C776   1.403       .  A
C775        C780   1.405       .  A
C775        H782   1.084       .  S
C776        C777   1.417       .  A
C777        C778   1.408       .  A
C777        N784   1.438       .  S
C778        C779   1.401       .  A
C778        H783   1.084       .  S
C779        C780   1.413       .  A
C780        N781   1.438       .  S
N781        H785   1.047       .  S
N781        H786   1.045       .  S
N784        H787   1.048   1_655  S
N784        H788   1.043   1_655  S
C789        C790   1.408       .  A
C789        C794   1.410       .  A
C789        H796   1.084       .  S
C790        C791   1.411       .  A
C791        C792   1.404       .  A
C791        N798   1.438       .  S
C792        C793   1.403       .  A
C792        H797   1.084       .  S
C793        C794   1.410       .  A
C794        N795   1.438       .  S
N795        H799   1.046       .  S
N795        H800   1.046       .  S
N798        H801   1.046   1_565  S
N798        H802   1.046       .  S
C803        C804   1.408       .  A
C803        C808   1.408       .  A
C803        H810   1.084       .  S
C804        C805   1.415       .  A
C805        C806   1.398       .  A
C805        N812   1.433       .  S
C806        C807   1.405       .  A
C806        H811   1.084       .  S
C807        C808   1.409       .  A
C808        N809   1.437       .  S
N809        H813   1.046       .  S
N809        H814   1.045       .  S
N812        H815   1.044       .  S
N812        H816   1.044   1_545  S
C817        C818   1.402       .  A
C817        C822   1.399       .  A
C817        H824   1.084       .  S
C818        C819   1.408       .  A
C819        C820   1.404       .  A
C819        N826   1.438       .  S
C820        C821   1.406       .  A
C820        H825   1.084       .  S
C821        C822   1.418       .  A
C822        N823   1.433       .  S
N823        H827   1.045       .  S
N823        H828   1.045       .  S
N826        H829   1.046   1_545  S
N826        H830   1.046       .  S
C831        C832   1.400       .  A
C831        C836   1.403       .  A
C831        H838   1.084       .  S
C832        C833   1.408       .  A
C833        C834   1.403       .  A
C833        N840   1.438   1_565  S
C834        C835   1.406       .  A
C834        H839   1.084       .  S
C835        C836   1.416       .  A
C836        N837   1.438       .  S
N837        H841   1.045       .  S
N837        H842   1.046       .  S
N840        H843   1.046       .  S
N840        H844   1.045       .  S
C845        C846   1.408       .  A
C845        C850   1.406       .  A
C845        H852   1.083       .  S
C846        C847   1.412       .  A
C847        C848   1.399       .  A
C847        N854   1.433       .  S
C848        C849   1.406       .  A
C848        H853   1.084       .  S
C849        C850   1.412       .  A
C850        N851   1.438       .  S
N851        H855   1.045       .  S
N851        H856   1.046       .  S
N854        H857   1.046       .  S
N854        H858   1.046       .  S
C859        C860   1.402       .  A
C859        C864   1.409       .  A
C859        H866   1.084       .  S
C860        C861   1.403       .  A
C861        C862   1.396       .  A
C861        N868   1.433       .  S
C862        C863   1.406       .  A
C862        H867   1.084       .  S
C863        C864   1.415       .  A
C864        N865   1.437       .  S
N865        H869   1.045       .  S
N865        H870   1.046       .  S
N868        H871   1.045       .  S
N868        H872   1.046       .  S
C873        C874   1.409       .  A
C873        C878   1.408       .  A
C873        H880   1.083       .  S
C874        C875   1.409       .  A
C875        C876   1.399       .  A
C875        N882   1.433       .  S
C876        C877   1.404       .  A
C876        H881   1.084       .  S
C877        C878   1.410       .  A
C878        N879   1.437       .  S
N879        H883   1.046       .  S
N879        H884   1.045       .  S
N882        H885   1.046       .  S
N882        H886   1.045       .  S
C887        C888   1.402       .  A
C887        C892   1.395       .  A
C887        H894   1.084       .  S
C888        C889   1.412       .  A
C889        C890   1.402       .  A
C889        N896   1.432       .  S
C890        C891   1.407       .  A
C890        H895   1.084       .  S
C891        C892   1.413       .  A
C892        N893   1.433       .  S
N893        H897   1.043       .  S
N893        H898   1.046       .  S
N896        H899   1.045       .  S
N896        H900   1.046       .  S
C901        C902   1.403       .  A
C901        C906   1.401       .  A
C901        H908   1.084       .  S
C902        C903   1.421       .  A
C903        C904   1.405       .  A
C903        N910   1.440       .  S
C904        C905   1.402       .  A
C904        H909   1.084       .  S
C905        C906   1.418       .  A
C906        N907   1.440       .  S
N907        H911   1.046       .  S
N907        H912   1.043       .  S
N910        H913   1.042       .  S
N910        H914   1.046       .  S
C915        C916   1.401       .  A
C915        C920   1.397       .  A
C915        H922   1.084       .  S
C916        C917   1.413       .  A
C917        C918   1.413       .  A
C917        N924   1.437       .  S
C918        C919   1.404       .  A
C918        H923   1.084       .  S
C919        C920   1.409       .  A
C920        N921   1.439       .  S
N921        H925   1.046       .  S
N921        H926   1.045       .  S
N924        H927   1.045       .  S
N924        H928   1.046       .  S
C929        C930   1.408       .  A
C929        C934   1.399       .  A
C929        H936   1.084       .  S
C930        C931   1.415       .  A
C931        C932   1.409       .  A
C931        N938   1.437       .  S
C932        C933   1.404       .  A
C932        H937   1.084       .  S
C933        C934   1.411       .  A
C934        N935   1.433       .  S
N935        H939   1.046       .  S
N935        H940   1.044       .  S
N938        H941   1.045       .  S
N938        H942   1.046       .  S
C943        C944   1.402       .  A
C943        C948   1.400       .  A
C943        H950   1.084       .  S
C944        C945   1.416       .  A
C945        C946   1.406       .  A
C945        N952   1.438       .  S
C946        C947   1.401       .  A
C946        H951   1.084       .  S
C947        C948   1.412       .  A
C948        N949   1.439       .  S
N949        H953   1.046       .  S
N949        H954   1.046       .  S
N952        H955   1.045       .  S
N952        H956   1.046       .  S
C957        C958   1.399       .  A
C957        C962   1.402       .  A
C957        H964   1.084       .  S
C958        C959   1.411       .  A
C959        C960   1.407       .  A
C959        N966   1.438       .  S
C960        C961   1.406       .  A
C960        H965   1.083       .  S
C961        C962   1.414       .  A
C962        N963   1.433       .  S
N963        H967   1.046       .  S
N963        H968   1.046       .  S
N966        H969   1.046       .  S
N966        H970   1.045       .  S
C971        C972   1.401       .  A
C971        C976   1.398       .  A
C971        H978   1.084       .  S
C972        C973   1.418       .  A
C973        C974   1.409       .  A
C973        N980   1.438       .  S
C974        C975   1.402       .  A
C974        H979   1.084       .  S
C975        C976   1.412       .  A
C976        N977   1.433       .  S
N977        H981   1.045       .  S
N977        H982   1.046       .  S
N980        H983   1.046       .  S
N980        H984   1.045       .  S
C985        C986   1.404       .  A
C985        C990   1.401       .  A
C985        H992   1.083       .  S
C986        C987   1.410       .  A
C987        C988   1.401       .  A
C987        N994   1.433       .  S
C988        C989   1.406       .  A
C988        H993   1.084       .  S
C989        C990   1.416       .  A
C990        N991   1.438       .  S
N991        H995   1.046       .  S
N991        H996   1.045       .  S
N994        H997   1.045       .  S
N994        H998   1.046       .  S
C999       C1000   1.406       .  A
C999       C1004   1.396       .  A
C999       H1006   1.085       .  S
C1000      C1001   1.415       .  A
C1001      C1002   1.401       .  A
C1001      N1008   1.438       .  S
C1002      C1003   1.406       .  A
C1002      H1007   1.084       .  S
C1003      C1004   1.412       .  A
C1004      N1005   1.433       .  S
N1005      H1009   1.044       .  S
N1005      H1010   1.045       .  S
N1008      H1011   1.046       .  S
N1008      H1012   1.042       .  S
C1013      C1014   1.408       .  A
C1013      C1018   1.408       .  A
C1013      H1020   1.084       .  S
C1014      C1015   1.411       .  A
C1015      C1016   1.403       .  A
C1015      N1022   1.438       .  S
C1016      C1017   1.404       .  A
C1016      H1021   1.084       .  S
C1017      C1018   1.410       .  A
C1018      N1019   1.438       .  S
N1019      H1023   1.046       .  S
N1019      H1024   1.045       .  S
N1022      H1025   1.045       .  S
N1022      H1026   1.046       .  S
C1027      C1028   1.401       .  A
C1027      C1032   1.401       .  A
C1027      H1034   1.084       .  S
C1028      C1029   1.414       .  A
C1029      C1030   1.407       .  A
C1029      N1036   1.432       .  S
C1030      C1031   1.402       .  A
C1030      H1035   1.084       .  S
C1031      C1032   1.412       .  A
C1032      N1033   1.433       .  S
N1033      H1037   1.046       .  S
N1033      H1038   1.046       .  S
N1036      H1039   1.045       .  S
N1036      H1040   1.046       .  S
C1041      C1042   1.400       .  A
C1041      C1046   1.405       .  A
C1041      H1048   1.084       .  S
C1042      C1043   1.412       .  A
C1043      C1044   1.397       .  A
C1043      N1050   1.433       .  S
C1044      C1045   1.406       .  A
C1044      H1049   1.084       .  S
C1045      C1046   1.419       .  A
C1046      N1047   1.438       .  S
N1047      H1051   1.045       .  S
N1047      H1052   1.046       .  S
N1050      H1053   1.046       .  S
N1050      H1054   1.043       .  S
C1055      C1056   1.401       .  A
C1055      C1060   1.400       .  A
C1055      H1062   1.084       .  S
C1056      C1057   1.420       .  A
C1057      C1058   1.403       .  A
C1057      N1064   1.440       .  S
C1058      C1059   1.401       .  A
C1058      H1063   1.084       .  S
C1059      C1060   1.418       .  A
C1060      N1061   1.440       .  S
N1061      H1065   1.045       .  S
N1061      H1066   1.043       .  S
N1064      H1067   1.042       .  S
N1064      H1068   1.046       .  S
C1069      C1070   1.406       .  A
C1069      C1074   1.405       .  A
C1069      H1076   1.083       .  S
C1070      C1071   1.413       .  A
C1071      C1072   1.402       .  A
C1071      N1078   1.433       .  S
C1072      C1073   1.406       .  A
C1072      H1077   1.083       .  S
C1073      C1074   1.417       .  A
C1074      N1075   1.438       .  S
N1075      H1079   1.046       .  S
N1075      H1080   1.045       .  S
N1078      H1081   1.045       .  S
N1078      H1082   1.046       .  S
C1083      C1084   1.406       .  A
C1083      C1088   1.403       .  A
C1083      H1090   1.083       .  S
C1084      C1085   1.412       .  A
C1085      C1086   1.400       .  A
C1085      N1092   1.433       .  S
C1086      C1087   1.406       .  A
C1086      H1091   1.084       .  S
C1087      C1088   1.415       .  A
C1088      N1089   1.438       .  S
N1089      H1093   1.046       .  S
N1089      H1094   1.046       .  S
N1092      H1095   1.046       .  S
N1092      H1096   1.046       .  S
C1097      C1098   1.402       .  A
C1097      C1102   1.407       .  A
C1097      H1104   1.084       .  S
C1098      C1099   1.416       .  A
C1099      C1100   1.399       .  A
C1099      N1106   1.439       .  S
C1100      C1101   1.400       .  A
C1100      H1105   1.084       .  S
C1101      C1102   1.410       .  A
C1102      N1103   1.438       .  S
N1103      H1107   1.046       .  S
N1103      H1108   1.046       .  S
N1106      H1109   1.044       .  S
N1106      H1110   1.046       .  S
C1111      C1112   1.402       .  A
C1111      C1116   1.397       .  A
C1111      H1118   1.085       .  S
C1112      C1113   1.420       .  A
C1113      C1114   1.405       .  A
C1113      N1120   1.438       .  S
C1114      C1115   1.401       .  A
C1114      H1119   1.084       .  S
C1115      C1116   1.414       .  A
C1116      N1117   1.439       .  S
N1117      H1121   1.046       .  S
N1117      H1122   1.044       .  S
N1120      H1123   1.042       .  S
N1120      H1124   1.045       .  S
C1125      C1126   1.403       .  A
C1125      C1130   1.407       .  A
C1125      H1132   1.084       .  S
C1126      C1127   1.414       .  A
C1127      C1128   1.396       .  A
C1127      N1134   1.439       .  S
C1128      C1129   1.399       .  A
C1128      H1133   1.085       .  S
C1129      C1130   1.409       .  A
C1130      N1131   1.438       .  S
N1131      H1135   1.046       .  S
N1131      H1136   1.046       .  S
N1134      H1137   1.044       .  S
N1134      H1138   1.045       .  S
C1139      C1140   1.402       .  A
C1139      C1144   1.407       .  A
C1139      H1146   1.084       .  S
C1140      C1141   1.408       .  A
C1141      C1142   1.398       .  A
C1141      N1148   1.439       .  S
C1142      C1143   1.403       .  A
C1142      H1147   1.084       .  S
C1143      C1144   1.412       .  A
C1144      N1145   1.437       .  S
N1145      H1149   1.046       .  S
N1145      H1150   1.046       .  S
N1148      H1151   1.045       .  S
N1148      H1152   1.046       .  S
C1153      C1154   1.399       .  A
C1153      C1158   1.399       .  A
C1153      H1160   1.084       .  S
C1154      C1155   1.409       .  A
C1155      C1156   1.407       .  A
C1155      N1162   1.438   1_545  S
C1156      C1157   1.408       .  A
C1156      H1161   1.083       .  S
C1157      C1158   1.423       .  A
C1158      N1159   1.433       .  S
N1159      H1163   1.045       .  S
N1159      H1164   1.045       .  S
N1162      H1165   1.045       .  S
N1162      H1166   1.046       .  S
C1167      C1168   1.400       .  A
C1167      C1172   1.405       .  A
C1167      H1174   1.084       .  S
C1168      C1169   1.416       .  A
C1169      C1170   1.399       .  A
C1169      N1176   1.440       .  S
C1170      C1171   1.406       .  A
C1170      H1175   1.084       .  S
C1171      C1172   1.414       .  A
C1172      N1173   1.432       .  S
N1173      H1177   1.046       .  S
N1173      H1178   1.046       .  S
N1176      H1179   1.043       .  S
N1176      H1180   1.046       .  S
C1181      C1182   1.399       .  A
C1181      C1186   1.402       .  A
C1181      H1188   1.084       .  S
C1182      C1183   1.413       .  A
C1183      C1184   1.398       .  A
C1183      N1190   1.439       .  S
C1184      C1185   1.406       .  A
C1184      H1189   1.084       .  S
C1185      C1186   1.413       .  A
C1186      N1187   1.432       .  S
N1187      H1191   1.046       .  S
N1187      H1192   1.046       .  S
N1190      H1193   1.044       .  S
N1190      H1194   1.046       .  S
C1195      C1196   1.405       .  A
C1195      C1200   1.406       .  A
C1195      H1202   1.084       .  S
C1196      C1197   1.417       .  A
C1197      C1198   1.405       .  A
C1197      N1204   1.439       .  S
C1198      C1199   1.400       .  A
C1198      H1203   1.084       .  S
C1199      C1200   1.409       .  A
C1200      N1201   1.438   1_565  S
N1201      H1205   1.046       .  S
N1201      H1206   1.045       .  S
N1204      H1207   1.046       .  S
N1204      H1208   1.046       .  S
C1209      C1210   1.402       .  A
C1209      C1214   1.405       .  A
C1209      H1216   1.084       .  S
C1210      C1211   1.419       .  A
C1211      C1212   1.399       .  A
C1211      N1218   1.441       .  S
C1212      C1213   1.402       .  A
C1212      H1217   1.084       .  S
C1213      C1214   1.421       .  A
C1214      N1215   1.440   1_545  S
N1215      H1219   1.046       .  S
N1215      H1220   1.041       .  S
N1218      H1221   1.043       .  S
N1218      H1222   1.045       .  S
C1223      C1224   1.409       .  A
C1223      C1228   1.399       .  A
C1223      H1230   1.084       .  S
C1224      C1225   1.415       .  A
C1225      C1226   1.404       .  A
C1225      N1232   1.432       .  S
C1226      C1227   1.400       .  A
C1226      H1231   1.084       .  S
C1227      C1228   1.409       .  A
C1228      N1229   1.433       .  S
N1229      H1233   1.045   1_556  S
N1229      H1234   1.045       .  S
N1232      H1235   1.046       .  S
N1232      H1236   1.045       .  S
C1237      C1238   1.405       .  A
C1237      C1242   1.406       .  A
C1237      H1244   1.084       .  S
C1238      C1239   1.407       .  A
C1239      C1240   1.404       .  A
C1239      N1246   1.432       .  S
C1240      C1241   1.407       .  A
C1240      H1245   1.084       .  S
C1241      C1242   1.412       .  A
C1242      N1243   1.432       .  S
N1243      H1247   1.046       .  S
N1243      H1248   1.045       .  S
N1246      H1249   1.045       .  S
N1246      H1250   1.046       .  S
C1251      C1252   1.408       .  A
C1251      C1256   1.402       .  A
C1251      H1258   1.083       .  S
C1252      C1253   1.419       .  A
C1253      C1254   1.399       .  A
C1253      N1260   1.432       .  S
C1254      C1255   1.401       .  A
C1254      H1259   1.084   1_545  S
C1255      C1256   1.408       .  A
C1256      N1257   1.438       .  S
N1257      H1261   1.046       .  S
N1257      H1262   1.045   1_556  S
N1260      H1263   1.045       .  S
N1260      H1264   1.045       .  S
C1265      C1266   1.408       .  A
C1265      C1270   1.409       .  A
C1265      H1272   1.083       .  S
C1266      C1267   1.413       .  A
C1267      C1268   1.405       .  A
C1267      N1274   1.438       .  S
C1268      C1269   1.405       .  A
C1268      H1273   1.084       .  S
C1269      C1270   1.410       .  A
C1270      N1271   1.437       .  S
N1271      H1275   1.046       .  S
N1271      H1276   1.046       .  S
N1274      H1277   1.046       .  S
N1274      H1278   1.045       .  S
C1279      C1280   1.402       .  A
C1279      C1284   1.405       .  A
C1279      H1286   1.084       .  S
C1280      C1281   1.412       .  A
C1281      C1282   1.399       .  A
C1281      N1288   1.433       .  S
C1282      C1283   1.406       .  A
C1282      H1287   1.084       .  S
C1283      C1284   1.414       .  A
C1284      N1285   1.432       .  S
N1285      H1289   1.046       .  S
N1285      H1290   1.045       .  S
N1288      H1291   1.046   1_565  S
N1288      H1292   1.044       .  S
C1293      C1294   1.399       .  A
C1293      C1298   1.405       .  A
C1293      H1300   1.084       .  S
C1294      C1295   1.410       .  A
C1295      C1296   1.397       .  A
C1295      N1302   1.433   1_556  S
C1296      C1297   1.408       .  A
C1296      H1301   1.084       .  S
C1297      C1298   1.420       .  A
C1298      N1299   1.438       .  S
N1299      H1303   1.046       .  S
N1299      H1304   1.046       .  S
N1302      H1305   1.047       .  S
N1302      H1306   1.043       .  S
C1307      C1308   1.401       .  A
C1307      C1312   1.397       .  A
C1307      H1314   1.084       .  S
C1308      C1309   1.412       .  A
C1309      C1310   1.406       .  A
C1309      N1316   1.438       .  S
C1310      C1311   1.406       .  A
C1310      H1315   1.084       .  S
C1311      C1312   1.418       .  A
C1312      N1313   1.433       .  S
N1313      H1317   1.044       .  S
N1313      H1318   1.046       .  S
N1316      H1319   1.045       .  S
N1316      H1320   1.046       .  S
C1321      C1322   1.405       .  A
C1321      C1326   1.397       .  A
C1321      H1328   1.084       .  S
C1322      C1323   1.417       .  A
C1323      C1324   1.404       .  A
C1323      N1330   1.438       .  S
C1324      C1325   1.405       .  A
C1324      H1329   1.084       .  S
C1325      C1326   1.412       .  A
C1326      N1327   1.433       .  S
N1327      H1331   1.043       .  S
N1327      H1332   1.046   1_554  S
N1330      H1333   1.040       .  S
N1330      H1334   1.047       .  S
C1335      C1336   1.408       .  A
C1335      C1340   1.399       .  A
C1335      H1342   1.084       .  S
C1336      C1337   1.417       .  A
C1337      C1338   1.403       .  A
C1337      N1344   1.432       .  S
C1338      C1339   1.399       .  A
C1338      H1343   1.084       .  S
C1339      C1340   1.410       .  A
C1340      N1341   1.433       .  S
N1341      H1345   1.045       .  S
N1341      H1346   1.046       .  S
N1344      H1347   1.046       .  S
N1344      H1348   1.046       .  S
C1349      C1350   1.403       .  A
C1349      C1354   1.410       .  A
C1349      H1356   1.084       .  S
C1350      C1351   1.411       .  A
C1351      C1352   1.396       .  A
C1351      N1358   1.439       .  S
C1352      C1353   1.399       .  A
C1352      H1357   1.084       .  S
C1353      C1354   1.410       .  A
C1354      N1355   1.437       .  S
N1355      H1359   1.045       .  S
N1355      H1360   1.046       .  S
N1358      H1361   1.045       .  S
N1358      H1362   1.046       .  S
C1363      C1364   1.401       .  A
C1363      C1368   1.398       .  A
C1363      H1370   1.084       .  S
C1364      C1365   1.410       .  A
C1365      C1366   1.410       .  A
C1365      N1372   1.437       .  S
C1366      C1367   1.405       .  A
C1366      H1371   1.084       .  S
C1367      C1368   1.410       .  A
C1368      N1369   1.439       .  S
N1369      H1373   1.046       .  S
N1369      H1374   1.046       .  S
N1372      H1375   1.046       .  S
N1372      H1376   1.045       .  S
C1377      C1378   1.408       .  A
C1377      C1382   1.412       .  A
C1377      H1384   1.084       .  S
C1378      C1379   1.414       .  A
C1379      C1380   1.393       .  A
C1379      N1386   1.440       .  S
C1380      C1381   1.401       .  A
C1380      H1385   1.085       .  S
C1381      C1382   1.408       .  A
C1382      N1383   1.437       .  S
N1383      H1387   1.046       .  S
N1383      H1388   1.046       .  S
N1386      H1389   1.043       .  S
N1386      H1390   1.046       .  S
C1391      C1392   1.408       .  A
C1391      C1396   1.406       .  A
C1391      H1398   1.083       .  S
C1392      C1393   1.411       .  A
C1393      C1394   1.401       .  A
C1393      N1400   1.433       .  S
C1394      C1395   1.407       .  A
C1394      H1399   1.084       .  S
C1395      C1396   1.415       .  A
C1396      N1397   1.438       .  S
N1397      H1401   1.046       .  S
N1397      H1402   1.045       .  S
N1400      H1403   1.046       .  S
N1400      H1404   1.046       .  S
C1405      C1406   1.405       .  A
C1405      C1410   1.402       .  A
C1405      H1412   1.083       .  S
C1406      C1407   1.413       .  A
C1407      C1408   1.406       .  A
C1407      N1414   1.438       .  S
C1408      C1409   1.407       .  A
C1408      H1413   1.083       .  S
C1409      C1410   1.416       .  A
C1410      N1411   1.439       .  S
N1411      H1415   1.046       .  S
N1411      H1416   1.045       .  S
N1414      H1417   1.046       .  S
N1414      H1418   1.046       .  S
C1419      C1420   1.405       .  A
C1419      C1424   1.400       .  A
C1419      H1426   1.084       .  S
C1420      C1421   1.417       .  A
C1421      C1422   1.402       .  A
C1421      N1428   1.438       .  S
C1422      C1423   1.404       .  A
C1422      H1427   1.083       .  S
C1423      C1424   1.413       .  A
C1424      N1425   1.433       .  S
N1425      H1429   1.046       .  S
N1425      H1430   1.046       .  S
N1428      H1431   1.045       .  S
N1428      H1432   1.046       .  S
C1433      C1434   1.403       .  A
C1433      C1438   1.400       .  A
C1433      H1440   1.084       .  S
C1434      C1435   1.413       .  A
C1435      C1436   1.407       .  A
C1435      N1442   1.437       .  S
C1436      C1437   1.401       .  A
C1436      H1441   1.084       .  S
C1437      C1438   1.409       .  A
C1438      N1439   1.440       .  S
N1439      H1443   1.045       .  S
N1439      H1444   1.045       .  S
N1442      H1445   1.046       .  S
N1442      H1446   1.045       .  S
C1447      C1448   1.399       .  A
C1447      C1452   1.396       .  A
C1447      H1454   1.084       .  S
C1448      C1449   1.410       .  A
C1449      C1450   1.407       .  A
C1449      N1456   1.438       .  S
C1450      C1451   1.402       .  A
C1450      H1455   1.084       .  S
C1451      C1452   1.414       .  A
C1452      N1453   1.440       .  S
N1453      H1457   1.045       .  S
N1453      H1458   1.044       .  S
N1456      H1459   1.046       .  S
N1456      H1460   1.046       .  S
C1461      C1462   1.397       .  A
C1461      C1466   1.401       .  A
C1461      H1468   1.084       .  S
C1462      C1463   1.408       .  A
C1463      C1464   1.398       .  A
C1463      N1470   1.433       .  S
C1464      C1465   1.408       .  A
C1464      H1469   1.084       .  S
C1465      C1466   1.419       .  A
C1466      N1467   1.438       .  S
N1467      H1471   1.046       .  S
N1467      H1472   1.046       .  S
N1470      H1473   1.045       .  S
N1470      H1474   1.046       .  S
C1475      C1476   1.406       .  A
C1475      C1480   1.399       .  A
C1475      H1482   1.084       .  S
C1476      C1477   1.418       .  A
C1477      C1478   1.406       .  A
C1477      N1484   1.438       .  S
C1478      C1479   1.400       .  A
C1478      H1483   1.084       .  S
C1479      C1480   1.412       .  A
C1480      N1481   1.433   1_455  S
N1481      H1485   1.044       .  S
N1481      H1486   1.046       .  S
N1484      H1487   1.046       .  S
N1484      H1488   1.046       .  S
C1489      C1490   1.403       .  A
C1489      C1494   1.399       .  A
C1489      H1496   1.084       .  S
C1490      C1491   1.409       .  A
C1491      C1492   1.406       .  A
C1491      N1498   1.438       .  S
C1492      C1493   1.407       .  A
C1492      H1497   1.084       .  S
C1493      C1494   1.418       .  A
C1494      N1495   1.433       .  S
N1495      H1499   1.045       .  S
N1495      H1500   1.045       .  S
N1498      H1501   1.045   1_556  S
N1498      H1502   1.046       .  S
C1503      C1504   1.408       .  A
C1503      C1508   1.408       .  A
C1503      H1510   1.084       .  S
C1504      C1505   1.413       .  A
C1505      C1506   1.398       .  A
C1505      N1512   1.433       .  S
C1506      C1507   1.398       .  A
C1506      H1511   1.084       .  S
C1507      C1508   1.408       .  A
C1508      N1509   1.438       .  S
N1509      H1513   1.044       .  S
N1509      H1514   1.047       .  S
N1512      H1515   1.045       .  S
N1512      H1516   1.046       .  S
C1517      C1518   1.408       .  A
C1517      C1522   1.404       .  A
C1517      H1524   1.083       .  S
C1518      C1519   1.419       .  A
C1519      C1520   1.407       .  A
C1519      N1526   1.438       .  S
C1520      C1521   1.399       .  A
C1520      H1525   1.084       .  S
C1521      C1522   1.406       .  A
C1522      N1523   1.439       .  S
N1523      H1527   1.046       .  S
N1523      H1528   1.045       .  S
N1526      H1529   1.046       .  S
N1526      H1530   1.046       .  S
C1531      C1532   1.405       .  A
C1531      C1536   1.408       .  A
C1531      H1538   1.083       .  S
C1532      C1533   1.415       .  A
C1533      C1534   1.400       .  A
C1533      N1540   1.433       .  S
C1534      C1535   1.403       .  A
C1534      H1539   1.084       .  S
C1535      C1536   1.419       .  A
C1536      N1537   1.438       .  S
N1537      H1541   1.045       .  S
N1537      H1542   1.046       .  S
N1540      H1543   1.046       .  S
N1540      H1544   1.046       .  S
C1545      C1546   1.406       .  A
C1545      C1550   1.406       .  A
C1545      H1552   1.084       .  S
C1546      C1547   1.420       .  A
C1547      C1548   1.399       .  A
C1547      N1554   1.433       .  S
C1548      C1549   1.401       .  A
C1548      H1553   1.084       .  S
C1549      C1550   1.412       .  A
C1550      N1551   1.438   1_655  S
N1551      H1555   1.046       .  S
N1551      H1556   1.046       .  S
N1554      H1557   1.045       .  S
N1554      H1558   1.045       .  S
C1559      C1560   1.405       .  A
C1559      C1564   1.404       .  A
C1559      H1566   1.084       .  S
C1560      C1561   1.410       .  A
C1561      C1562   1.410       .  A
C1561      N1568   1.437       .  S
C1562      C1563   1.408       .  A
C1562      H1567   1.083       .  S
C1563      C1564   1.412       .  A
C1564      N1565   1.438       .  S
N1565      H1569   1.046       .  S
N1565      H1570   1.046       .  S
N1568      H1571   1.046       .  S
N1568      H1572   1.046       .  S
C1573      C1574   1.400       .  A
C1573      C1578   1.400       .  A
C1573      H1580   1.084       .  S
C1574      C1575   1.412       .  A
C1575      C1576   1.401       .  A
C1575      N1582   1.432   1_655  S
C1576      C1577   1.403       .  A
C1576      H1581   1.084       .  S
C1577      C1578   1.417       .  A
C1578      N1579   1.439       .  S
N1579      H1583   1.045       .  S
N1579      H1584   1.044       .  S
N1582      H1585   1.044       .  S
N1582      H1586   1.046       .  S
C1587      C1588   1.402       .  A
C1587      C1592   1.398       .  A
C1587      H1594   1.084       .  S
C1588      C1589   1.413       .  A
C1589      C1590   1.399       .  A
C1589      N1596   1.433       .  S
C1590      C1591   1.401       .  A
C1590      H1595   1.084       .  S
C1591      C1592   1.412       .  A
C1592      N1593   1.433       .  S
N1593      H1597   1.044       .  S
N1593      H1598   1.046       .  S
N1596      H1599   1.047   1_556  S
N1596      H1600   1.043   1_556  S
C1601      C1602   1.404       .  A
C1601      C1606   1.402       .  A
C1601      H1608   1.084       .  S
C1602      C1603   1.409       .  A
C1603      C1604   1.404       .  A
C1603      N1610   1.438       .  S
C1604      C1605   1.407       .  A
C1604      H1609   1.084       .  S
C1605      C1606   1.408       .  A
C1606      N1607   1.432       .  S
N1607      H1611   1.046       .  S
N1607      H1612   1.046       .  S
N1610      H1613   1.046   1_455  S
N1610      H1614   1.045       .  S
C1615      C1616   1.401       .  A
C1615      C1620   1.402       .  A
C1615      H1622   1.084       .  S
C1616      C1617   1.414       .  A
C1617      C1618   1.407       .  A
C1617      N1624   1.438       .  S
C1618      C1619   1.401       .  A
C1618      H1623   1.084       .  S
C1619      C1620   1.412       .  A
C1620      N1621   1.438       .  S
N1621      H1625   1.046       .  S
N1621      H1626   1.045       .  S
N1624      H1627   1.046       .  S
N1624      H1628   1.045       .  S
C1629      C1630   1.401       .  A
C1629      C1634   1.404       .  A
C1629      H1636   1.084       .  S
C1630      C1631   1.410       .  A
C1631      C1632   1.404       .  A
C1631      N1638   1.432       .  S
C1632      C1633   1.405       .  A
C1632      H1637   1.084       .  S
C1633      C1634   1.415       .  A
C1634      N1635   1.433       .  S
N1635      H1639   1.046       .  S
N1635      H1640   1.045       .  S
N1638      H1641   1.046       .  S
N1638      H1642   1.045       .  S
C1643      C1644   1.406       .  A
C1643      C1648   1.402       .  A
C1643      H1650   1.084       .  S
C1644      C1645   1.414       .  A
C1645      C1646   1.399       .  A
C1645      N1652   1.433       .  S
C1646      C1647   1.404       .  A
C1646      H1651   1.084       .  S
C1647      C1648   1.412       .  A
C1648      N1649   1.432       .  S
N1649      H1653   1.045       .  S
N1649      H1654   1.046       .  S
N1652      H1655   1.047   1_556  S
N1652      H1656   1.042       .  S
C1657      C1658   1.401       .  A
C1657      C1662   1.405       .  A
C1657      H1664   1.084       .  S
C1658      C1659   1.411       .  A
C1659      C1660   1.401       .  A
C1659      N1666   1.433       .  S
C1660      C1661   1.408       .  A
C1660      H1665   1.084       .  S
C1661      C1662   1.415       .  A
C1662      N1663   1.432       .  S
N1663      H1667   1.046       .  S
N1663      H1668   1.046       .  S
N1666      H1669   1.046   1_556  S
N1666      H1670   1.045       .  S
C1671      C1672   1.406       .  A
C1671      C1676   1.407       .  A
C1671      H1678   1.084       .  S
C1672      C1673   1.411       .  A
C1673      C1674   1.403       .  A
C1673      N1680   1.438       .  S
C1674      C1675   1.404       .  A
C1674      H1679   1.084       .  S
C1675      C1676   1.409       .  A
C1676      N1677   1.438       .  S
N1677      H1681   1.045       .  S
N1677      H1682   1.046       .  S
N1680      H1683   1.046       .  S
N1680      H1684   1.046       .  S
C1685      C1686   1.403   1_565  A
C1685      C1690   1.401       .  A
C1685      H1692   1.084       .  S
C1686      C1687   1.415   1_554  A
C1687      C1688   1.404       .  A
C1687      N1694   1.433       .  S
C1688      C1689   1.406   1_556  A
C1688      H1693   1.084       .  S
C1689      C1690   1.416   1_545  A
C1690      N1691   1.433       .  S
N1691      H1695   1.042   1_554  S
N1691      H1696   1.046       .  S
N1694      H1697   1.046       .  S
N1694      H1698   1.045   1_556  S
C1699      C1700   1.404   1_556  A
C1699      C1704   1.407       .  A
C1699      H1706   1.084       .  S
C1700      C1701   1.414   1_655  A
C1701      C1702   1.410       .  A
C1701      N1708   1.438       .  S
C1702      C1703   1.407       .  A
C1702      H1707   1.083       .  S
C1703      C1704   1.415   1_454  A
C1704      N1705   1.438   1_655  S
N1705      H1709   1.045   1_455  S
N1705      H1710   1.046       .  S
N1708      H1711   1.045       .  S
N1708      H1712   1.046       .  S
C1713      C1714   1.403       .  A
C1713      C1718   1.408       .  A
C1713      H1720   1.084       .  S
C1714      C1715   1.412   1_545  A
C1715      C1716   1.408       .  A
C1715      N1722   1.438   1_655  S
C1716      C1717   1.406   1_565  A
C1716      H1721   1.084       .  S
C1717      C1718   1.415       .  A
C1718      N1719   1.438       .  S
N1719      H1723   1.046       .  S
N1719      H1724   1.046       .  S
N1722      H1725   1.046       .  S
N1722      H1726   1.045       .  S
C1727      C1728   1.404   1_656  A
C1727      C1732   1.404       .  A
C1727      H1734   1.084       .  S
C1728      C1729   1.419       .  A
C1729      C1730   1.404       .  A
C1729      N1736   1.440       .  S
C1730      C1731   1.405   1_554  A
C1730      H1735   1.084       .  S
C1731      C1732   1.419   1_455  A
C1732      N1733   1.440       .  S
N1733      H1737   1.046       .  S
N1733      H1738   1.043       .  S
N1736      H1739   1.041       .  S
N1736      H1740   1.046       .  S
C1741      C1742   1.405       .  A
C1741      C1746   1.404       .  A
C1741      H1748   1.084   1_565  S
C1742      C1743   1.420   1_554  A
C1743      C1744   1.403       .  A
C1743      N1750   1.440       .  S
C1744      C1745   1.405   1_556  A
C1744      H1749   1.084       .  S
C1745      C1746   1.409       .  A
C1746      N1747   1.432       .  S
N1747      H1751   1.045       .  S
N1747      H1752   1.046   1_565  S
N1750      H1753   1.042       .  S
N1750      H1754   1.045       .  S
C1755      C1756   1.406   1_455  A
C1755      C1760   1.411       .  A
C1755      H1762   1.084       .  S
C1756      C1757   1.419   1_545  A
C1757      C1758   1.400       .  A
C1757      N1764   1.441       .  S
C1758      C1759   1.403   1_665  A
C1758      H1763   1.084       .  S
C1759      C1760   1.413       .  A
C1760      N1761   1.438       .  S
N1761      H1765   1.045       .  S
N1761      H1766   1.046       .  S
N1764      H1767   1.041       .  S
N1764      H1768   1.046       .  S
C1769      C1770   1.411   1_655  A
C1769      C1774   1.403       .  A
C1769      H1776   1.083       .  S
C1770      C1771   1.424       .  A
C1771      C1772   1.410       .  A
C1771      N1778   1.438       .  S
C1772      C1773   1.399       .  A
C1772      H1777   1.084       .  S
C1773      C1774   1.409   1_455  A
C1774      N1775   1.433       .  S
N1775      H1779   1.046       .  S
N1775      H1780   1.045       .  S
N1778      H1781   1.046       .  S
N1778      H1782   1.046       .  S
C1783      C1784   1.410       .  A
C1783      C1788   1.403       .  A
C1783      H1790   1.083       .  S
C1784      C1785   1.422       .  A
C1785      C1786   1.412       .  A
C1785      N1792   1.438       .  S
C1786      C1787   1.401       .  A
C1786      H1791   1.084       .  S
C1787      C1788   1.410       .  A
C1788      N1789   1.433       .  S
N1789      H1793   1.045       .  S
N1789      H1794   1.046       .  S
N1792      H1795   1.046       .  S
N1792      H1796   1.045       .  S
C1797      C1798   1.401       .  A
C1797      C1802   1.409       .  A
C1797      H1804   1.084       .  S
C1798      C1799   1.409   1_455  A
C1799      C1800   1.408       .  A
C1799      N1806   1.438       .  S
C1800      C1801   1.408   1_655  A
C1800      H1805   1.083       .  S
C1801      C1802   1.419       .  A
C1802      N1803   1.438       .  S
N1803      H1807   1.046       .  S
N1803      H1808   1.046       .  S
N1806      H1809   1.045       .  S
N1806      H1810   1.046       .  S
C1811      C1812   1.407       .  A
C1811      C1816   1.402       .  A
C1811      H1818   1.084       .  S
C1812      C1813   1.419       .  A
C1813      C1814   1.411       .  A
C1813      N1820   1.438       .  S
C1814      C1815   1.403       .  A
C1814      H1819   1.084       .  S
C1815      C1816   1.414       .  A
C1816      N1817   1.433       .  S
N1817      H1821   1.046       .  S
N1817      H1822   1.044       .  S
N1820      H1823   1.046       .  S
N1820      H1824   1.046       .  S
C1825      C1826   1.401   1_455  A
C1825      C1830   1.409       .  A
C1825      H1832   1.084       .  S
C1826      C1827   1.411       .  A
C1827      C1828   1.402       .  A
C1827      N1834   1.432       .  S
C1828      C1829   1.408       .  A
C1828      H1833   1.084       .  S
C1829      C1830   1.420   1_655  A
C1830      N1831   1.438       .  S
N1831      H1835   1.047       .  S
N1831      H1836   1.045       .  S
N1834      H1837   1.045       .  S
N1834      H1838   1.045       .  S
C1839      C1840   1.401   1_455  A
C1839      C1844   1.403       .  A
C1839      H1846   1.084       .  S
C1840      C1841   1.410       .  A
C1841      C1842   1.409       .  A
C1841      N1848   1.437       .  S
C1842      C1843   1.407       .  A
C1842      H1847   1.083       .  S
C1843      C1844   1.414   1_655  A
C1844      N1845   1.433       .  S
N1845      H1849   1.045       .  S
N1845      H1850   1.046       .  S
N1848      H1851   1.046       .  S
N1848      H1852   1.046       .  S
C1853      C1854   1.407       .  A
C1853      C1858   1.407       .  A
C1853      H1860   1.084       .  S
C1854      C1855   1.417       .  A
C1855      C1856   1.408       .  A
C1855      N1862   1.438       .  S
C1856      C1857   1.402       .  A
C1856      H1861   1.084       .  S
C1857      C1858   1.411       .  A
C1858      N1859   1.438       .  S
N1859      H1863   1.046       .  S
N1859      H1864   1.045       .  S
N1862      H1865   1.045       .  S
N1862      H1866   1.046       .  S
C1867      C1868   1.406       .  A
C1867      C1872   1.408       .  A
C1867      H1874   1.084       .  S
C1868      C1869   1.418   1_565  A
C1869      C1870   1.403       .  A
C1869      N1876   1.433       .  S
C1870      C1871   1.405   1_545  A
C1870      H1875   1.084       .  S
C1871      C1872   1.413       .  A
C1872      N1873   1.438       .  S
N1873      H1877   1.046       .  S
N1873      H1878   1.045       .  S
N1876      H1879   1.045   1_545  S
N1876      H1880   1.046       .  S
C1881      C1882   1.401       .  A
C1881      C1886   1.400       .  A
C1881      H1888   1.084       .  S
C1882      C1883   1.411   1_565  A
C1883      C1884   1.410       .  A
C1883      N1890   1.438       .  S
C1884      C1885   1.409   1_545  A
C1884      H1889   1.084       .  S
C1885      C1886   1.420       .  A
C1886      N1887   1.432       .  S
N1887      H1891   1.045       .  S
N1887      H1892   1.045   1_565  S
N1890      H1893   1.045       .  S
N1890      H1894   1.046       .  S
C1895      C1896   1.408       .  A
C1895      C1900   1.409       .  A
C1895      H1902   1.084       .  S
C1896      C1897   1.418       .  A
C1897      C1898   1.401       .  A
C1897      N1904   1.433       .  S
C1898      C1899   1.403       .  A
C1898      H1903   1.084       .  S
C1899      C1900   1.411       .  A
C1900      N1901   1.438       .  S
N1901      H1905   1.044       .  S
N1901      H1906   1.047       .  S
N1904      H1907   1.045       .  S
N1904      H1908   1.045       .  S
C1909      C1910   1.404       .  A
C1909      C1914   1.410   1_545  A
C1909      H1916   1.084   1_545  S
C1910      C1911   1.414       .  A
C1911      C1912   1.401       .  A
C1911      N1918   1.433       .  S
C1912      C1913   1.407       .  A
C1912      H1917   1.084       .  S
C1913      C1914   1.416   1_545  A
C1914      N1915   1.438       .  S
N1915      H1919   1.045       .  S
N1915      H1920   1.046   1_565  S
N1918      H1921   1.045       .  S
N1918      H1922   1.043       .  S
C1923      C1924   1.402       .  A
C1923      C1928   1.410       .  A
C1923      H1930   1.084       .  S
C1924      C1925   1.407   1_565  A
C1925      C1926   1.405       .  A
C1925      N1932   1.432       .  S
C1926      C1927   1.407   1_545  A
C1926      H1931   1.084       .  S
C1927      C1928   1.419       .  A
C1928      N1929   1.438       .  S
N1929      H1933   1.046       .  S
N1929      H1934   1.045       .  S
N1932      H1935   1.045       .  S
N1932      H1936   1.046       .  S
C1937      C1938   1.408   1_554  A
C1937      C1942   1.403       .  A
C1937      H1944   1.084       .  S
C1938      C1939   1.415       .  A
C1939      C1940   1.406       .  A
C1939      N1946   1.432       .  S
C1940      C1941   1.402       .  A
C1940      H1945   1.084       .  S
C1941      C1942   1.405   1_556  A
C1942      N1943   1.432       .  S
N1943      H1947   1.046       .  S
N1943      H1948   1.045       .  S
N1946      H1949   1.045       .  S
N1946      H1950   1.046       .  S
C1951      C1952   1.401       .  A
C1951      C1956   1.412       .  A
C1951      H1958   1.084       .  S
C1952      C1953   1.409   1_556  A
C1953      C1954   1.401       .  A
C1953      N1960   1.433       .  S
C1954      C1955   1.410   1_554  A
C1954      H1959   1.083       .  S
C1955      C1956   1.422       .  A
C1956      N1957   1.438       .  S
N1957      H1961   1.046       .  S
N1957      H1962   1.045       .  S
N1960      H1963   1.045       .  S
N1960      H1964   1.045       .  S
C1965      C1966   1.407       .  A
C1965      C1970   1.405       .  A
C1965      H1972   1.084       .  S
C1966      C1967   1.414       .  A
C1967      C1968   1.406       .  A
C1967      N1974   1.432       .  S
C1968      C1969   1.402       .  A
C1968      H1973   1.084       .  S
C1969      C1970   1.408       .  A
C1970      N1971   1.432       .  S
N1971      H1975   1.045       .  S
N1971      H1976   1.046       .  S
N1974      H1977   1.046       .  S
N1974      H1978   1.045       .  S
C1979      C1980   1.408       .  A
C1979      C1984   1.401       .  A
C1979      H1986   1.083       .  S
C1980      C1981   1.420       .  A
C1981      C1982   1.410       .  A
C1981      N1988   1.438       .  S
C1982      C1983   1.402       .  A
C1982      H1987   1.084       .  S
C1983      C1984   1.411       .  A
C1984      N1985   1.433       .  S
N1985      H1989   1.045       .  S
N1985      H1990   1.045       .  S
N1988      H1991   1.045       .  S
N1988      H1992   1.046       .  S
C1993      C1994   1.407   1_554  A
C1993      C1998   1.410       .  A
C1993      H2000   1.083       .  S
C1994      C1995   1.413       .  A
C1995      C1996   1.406       .  A
C1995      N2002   1.432       .  S
C1996      C1997   1.403       .  A
C1996      H2001   1.084       .  S
C1997      C1998   1.413   1_556  A
C1998      N1999   1.438       .  S
N1999      H2003   1.049       .  S
N1999      H2004   1.042       .  S
N2002      H2005   1.046   1_556  S
N2002      H2006   1.045       .  S
C2007      C2008   1.408   1_554  A
C2007      C2012   1.408       .  A
C2007      H2014   1.083       .  S
C2008      C2009   1.418       .  A
C2009      C2010   1.407       .  A
C2009      N2016   1.438       .  S
C2010      C2011   1.402       .  A
C2010      H2015   1.084       .  S
C2011      C2012   1.410   1_556  A
C2012      N2013   1.438       .  S
N2013      H2017   1.046       .  S
N2013      H2018   1.046       .  S
N2016      H2019   1.045       .  S
N2016      H2020   1.046       .  S
