geometry optimzed in LAMMPS
_audit_creation_date              2020-11-30 
_audit_creation_method            'lammps2cif' 
_symmetry_space_group_name_H-M    'P1' 
_symmetry_Int_Tables_number       1 
_symmetry_cell_setting            triclinic 
loop_ 
_symmetry_equiv_pos_as_xyz 
  x,y,z 
_cell_length_a                    34.64006763 
_cell_length_b                    34.49737441102971 
_cell_length_c                    85.04687707205055 
_cell_angle_alpha                 89.83853941066128 
_cell_angle_beta                  90.04444687201043 
_cell_angle_gamma                 120.19628340371655 
loop_ 
_atom_site_label 
_atom_site_type_symbol 
_atom_site_fract_x 
_atom_site_fract_y 
_atom_site_fract_z 
_atom_site_charge 
C1          C  0.68851909  0.07850608  0.72449951     0.80500
N2          N  0.65251892  0.03826455  0.72139955    -0.77800
C3          C  0.64673869  0.01811109  0.70734463     0.82900
N4          N  0.67843408  0.03828905  0.69602207    -0.77800
C5          C  0.71540410  0.07892181  0.69895894     0.83000
N6          N  0.72003564  0.09941478  0.71316329    -0.79500
C7          C  0.78228166  0.10041870  0.66239647     0.80500
N8          N  0.81618371  0.14278241  0.66529103    -0.77800
C9          C  0.81745432  0.16442976  0.67877387     0.82900
N10         N  0.78440208  0.14336677  0.68950897    -0.77800
C11         C  0.75019704  0.10108863  0.68685716     0.83000
N12         N  0.74918950  0.07949977  0.67328440    -0.79500
C13         C  0.50475448  0.75940967  0.83128568     0.80500
N14         N  0.51768363  0.73918822  0.84210984    -0.77800
C15         C  0.54322757  0.76294822  0.85466177     0.82900
N16         N  0.55547868  0.80714123  0.85634501    -0.77800
C17         C  0.54315177  0.82743045  0.84525439     0.83000
N18         N  0.51807830  0.80329366  0.83294070    -0.79500
C19         C  0.59095685  0.74042749  0.89046462     0.80500
N20         N  0.57986492  0.76232268  0.87961190    -0.77800
C21         C  0.55634176  0.74013485  0.86646884     0.82900
N22         N  0.54487251  0.69639524  0.86416047    -0.77800
C23         C  0.55593306  0.67472070  0.87504741     0.83000
N24         N  0.57854652  0.69701360  0.88802634    -0.79500
C25         C  0.85753171  0.43953564  0.49194921     0.80500
N26         N  0.87204316  0.42072866  0.50277044    -0.77800
C27         C  0.89488235  0.44453634  0.51574702     0.82900
N28         N  0.90235425  0.48708688  0.51798817    -0.77800
C29         C  0.88725689  0.50558490  0.50719144     0.83000
N30         N  0.86539999  0.48158190  0.49434990    -0.79500
C31         C  0.95190411  0.42903529  0.55015339     0.80500
N32         N  0.93851037  0.38509879  0.54876140    -0.77800
C33         C  0.91154701  0.35987668  0.53698147     0.82900
N34         N  0.89762152  0.37924274  0.52613696    -0.77800
C35         C  0.91024578  0.42359198  0.52746279     0.83000
N36         N  0.93743460  0.44845499  0.53953543    -0.79500
C37         C  0.45588861  0.43834375  0.99310316     0.80500
N38         N  0.49081215  0.47889058  0.99676386    -0.77800
C39         C  0.48793552  0.50516774  0.00789960     0.82900
N40         N  0.44897254  0.49022250  0.01588444    -0.77800
C41         C  0.41325198  0.44896728  0.01253648     0.83000
N42         N  0.41673941  0.42312357  0.00103474    -0.79500
C43         C  0.32999329  0.43868719  0.04242322     0.80500
N44         N  0.29846189  0.39528965  0.04046132    -0.77800
C45         C  0.30278520  0.36925182  0.02962334     0.82900
N46         N  0.33948620  0.38711024  0.02025107    -0.77800
C47         C  0.37206559  0.43090253  0.02206038     0.83000
N48         N  0.36754164  0.45667604  0.03334968    -0.79500
C49         C  0.00410956  0.76092448  0.38348424     0.80500
N50         N  0.03971487  0.77676726  0.37363729    -0.77800
C51         C  0.03721974  0.75317274  0.36035802     0.82900
N52         N  0.99887532  0.71384522  0.35702133    -0.77800
C53         C  0.96329630  0.69868086  0.36692956     0.83000
N54         N  0.96673257  0.72237408  0.37992412    -0.79500
C55         C  0.11276868  0.76554042  0.32714237     0.80500
N56         N  0.14859905  0.80589785  0.33077529    -0.77800
C57         C  0.14892658  0.82873921  0.34371431     0.82900
N58         N  0.11272124  0.81098705  0.35324061    -0.77800
C59         C  0.07620500  0.77071944  0.34981302     0.83000
N60         N  0.07618016  0.74778007  0.33670888    -0.79500
C61         C  0.15088807  0.08978481  0.16893403     0.80500
N62         N  0.17245077  0.07187561  0.17687640    -0.77800
C63         C  0.20035683  0.09527269  0.18904368     0.82900
N64         N  0.20711098  0.13662804  0.19293228    -0.77800
C65         C  0.18610092  0.15452820  0.18480956     0.83000
N66         N  0.15813209  0.13069695  0.17303564    -0.79500
C67         C  0.26723956  0.08166227  0.22015120     0.80500
N68         N  0.26951308  0.04617785  0.21469308    -0.77800
C69         C  0.24934741  0.02550759  0.20114558     0.82900
N70         N  0.22584917  0.04052829  0.19280023    -0.77800
C71         C  0.22376982  0.07682292  0.19807936     0.83000
N72         N  0.24467497  0.09732647  0.21173258    -0.79500
C73         C  0.05659553  0.69480014  0.83228729     0.80500
N74         N  0.01766774  0.65934895  0.83700547    -0.77800
C75         C  0.99442363  0.66132005  0.84933549     0.82900
N76         N  0.01066084  0.70027767  0.85744022    -0.77800
C77         C  0.05037218  0.73678626  0.85306130     0.83000
N78         N  0.07342069  0.73409731  0.84037062    -0.79500
C79         C  0.06184153  0.81805168  0.88389707     0.80500
N80         N  0.04517348  0.78007576  0.87512316    -0.77800
C81         C  0.06830112  0.77853222  0.86231477     0.82900
N82         N  0.10814949  0.81534106  0.85830913    -0.77800
C83         C  0.12455508  0.85335363  0.86705672     0.83000
N84         N  0.10123525  0.85400414  0.87970298    -0.79500
C85         C  0.71474289  0.63782492  0.65709183     0.80500
N86         N  0.73431551  0.62107871  0.66668402    -0.77800
C87         C  0.71477900  0.60207523  0.68079765     0.82900
N88         N  0.67614226  0.60056012  0.68529505    -0.77800
C89         C  0.65726515  0.61795875  0.67570729     0.83000
N90         N  0.67674025  0.63597959  0.66181300    -0.79500
C91         C  0.73292178  0.54290066  0.71399515     0.80500
N92         N  0.77242890  0.54681615  0.70969097    -0.77800
C93         C  0.79365585  0.56857852  0.69631623     0.82900
N94         N  0.77500964  0.58685261  0.68705476    -0.77800
C95         C  0.73526622  0.58311808  0.69113859     0.83000
N96         N  0.71424685  0.56109641  0.70463760    -0.79500
C97         C  0.40759618  0.36805786  0.50182501     0.80500
N98         N  0.42169157  0.40745151  0.50948906    -0.77800
C99         C  0.39642988  0.40973785  0.52137819     0.82900
N100        N  0.35658638  0.37270237  0.52527325    -0.77800
C101        C  0.34278421  0.33341122  0.51756706     0.83000
N102        N  0.36862319  0.33169302  0.50606241    -0.79500
C103        C  0.40038798  0.49213194  0.55007891     0.80500
N104        N  0.38607198  0.45380717  0.54175383    -0.77800
C105        C  0.41209853  0.45188660  0.53010109     0.82900
N106        N  0.45291086  0.48854238  0.52691009    -0.77800
C107        C  0.46733214  0.52685603  0.53535547     0.83000
N108        N  0.44083526  0.52803844  0.54679200    -0.79500
C109        C  0.35966573  0.94209521  0.98459425     0.80500
N110        N  0.31798903  0.93337071  0.98805110    -0.77800
C111        C  0.29832989  0.91483056  0.00195412     0.82900
N112        N  0.32056004  0.90356837  0.01258876    -0.77800
C113        C  0.36243731  0.91127726  0.00913343     0.83000
N114        N  0.38210436  0.93127135  0.99520835    -0.79500
C115        C  0.38691473  0.85627970  0.04236996     0.80500
N116        N  0.42988326  0.86895606  0.03914383    -0.77800
C117        C  0.45175883  0.89534572  0.02669809     0.82900
N118        N  0.42971896  0.90911006  0.01701508    -0.77800
C119        C  0.38628846  0.89701658  0.02006506     0.83000
N120        N  0.36489739  0.87060293  0.03284143    -0.79500
C121        C  0.06485002  0.22063512  0.38338347     0.80500
N122        N  0.10389369  0.22350119  0.37916340    -0.77800
C123        C  0.12821377  0.24926796  0.36687433     0.82900
N124        N  0.11289978  0.27254054  0.35851920    -0.77800
C125        C  0.07331319  0.26950567  0.36256329     0.83000
N126        N  0.04961922  0.24371692  0.37505244    -0.79500
C127        C  0.06025761  0.34153389  0.33298681     0.80500
N128        N  0.02132419  0.33768156  0.33786667    -0.77800
C129        C  0.99877012  0.31179878  0.35033898     0.82900
N130        N  0.01586747  0.28963789  0.35822331    -0.77800
C131        C  0.05528029  0.29336651  0.35358392     0.83000
N132        N  0.07740805  0.31912939  0.34082690    -0.79500
C133        C  0.71503193  0.16328836  0.21321936     0.80500
N134        N  0.70057479  0.12542973  0.20461848    -0.77800
C135        C  0.72756648  0.12351072  0.19335675     0.82900
N136        N  0.76933855  0.15934953  0.19094678    -0.77800
C137        C  0.78384647  0.19689620  0.19978220     0.83000
N138        N  0.75650299  0.19836625  0.21073805    -0.79500
C139        C  0.72409829  0.04190701  0.16443001     0.80500
N140        N  0.68456308  0.00515337  0.16823371    -0.77800
C141        C  0.65861694  0.00617998  0.17993387     0.82900
N142        N  0.67255329  0.04489164  0.18799583    -0.77800
C143        C  0.71227602  0.08209777  0.18435055     0.83000
N144        N  0.73801753  0.08054500  0.17253776    -0.79500
C145        C  0.51878241  0.71455633  0.32425648     0.80500
N146        N  0.53503379  0.74842740  0.33491201    -0.77800
C147        C  0.55798825  0.74724364  0.34786983     0.82900
N148        N  0.56386485  0.71139958  0.35024857    -0.77800
C149        C  0.54737050  0.67739984  0.33958575     0.83000
N150        N  0.52544448  0.67965274  0.32674851    -0.79500
C151        C  0.62241220  0.82701634  0.38035558     0.80500
N152        N  0.60437967  0.78939040  0.37115439    -0.77800
C153        C  0.57676770  0.78557420  0.35886611     0.82900
N154        N  0.56755457  0.81895907  0.35602937    -0.77800
C155        C  0.58545551  0.85594316  0.36515324     0.83000
N156        N  0.61264058  0.85948183  0.37708217    -0.79500
C157        C  0.29591211  0.16195164  0.71213448     0.80500
N158        N  0.28152949  0.12679987  0.70204348    -0.77800
C159        C  0.25513174  0.12371615  0.68961597     0.82900
N160        N  0.24326922  0.15555791  0.68745554    -0.77800
C161        C  0.25724836  0.19012919  0.69764589     0.83000
N162        N  0.28363469  0.19301065  0.70978434    -0.79500
C163        C  0.20870975  0.05978443  0.65310053     0.80500
N164        N  0.22168645  0.09150055  0.66436728    -0.77800
C165        C  0.24118269  0.08812323  0.67781668     0.82900
N166        N  0.24662485  0.05190283  0.68015634    -0.77800
C167        C  0.23289436  0.01971165  0.66883483     0.83000
N168        N  0.21449946  0.02437609  0.65547806    -0.79500
C169        C  0.45944821  0.97950856  0.49633854     0.80500
N170        N  0.42397966  0.96672266  0.50614878    -0.77800
C171        C  0.41893716  0.94057510  0.51901411     0.82900
N172        N  0.44982038  0.92770874  0.52199018    -0.77800
C173        C  0.48503219  0.94063697  0.51205061     0.83000
N174        N  0.48901906  0.96606043  0.49944433    -0.79500
C175        C  0.33753832  0.88272060  0.55136961     0.80500
N176        N  0.30906186  0.89814010  0.54902260    -0.77800
C177        C  0.31468891  0.92661912  0.53717042     0.82900
N178        N  0.35002484  0.94011588  0.52720390    -0.77800
C179        C  0.37983072  0.92552312  0.52954419     0.83000
N180        N  0.37336579  0.89671447  0.54167181    -0.79500
C181        C  0.66594500  0.54111643  0.21614461     0.80500
N182        N  0.70141880  0.55833174  0.20619969    -0.77800
C183        C  0.70199049  0.58198355  0.19316566     0.82900
N184        N  0.66647815  0.58806372  0.19011368    -0.77800
C185        C  0.63088201  0.57047302  0.20014801     0.83000
N186        N  0.63144231  0.54749634  0.21292057    -0.79500
C187        C  0.78052833  0.64156103  0.16001206     0.80500
N188        N  0.81134510  0.62957021  0.16284661    -0.77800
C189        C  0.80853178  0.60369320  0.17512580     0.82900
N190        N  0.77329727  0.58889719  0.18511128    -0.77800
C191        C  0.74088354  0.59981984  0.18242152     0.83000
N192        N  0.74455118  0.62639946  0.16979666    -0.79500
C193        C  0.81225034  0.36126450  0.00005394     0.80500
N194        N  0.83188503  0.39871575  0.00898886    -0.77800
C195        C  0.85531566  0.40037789  0.02210054     0.82900
N196        N  0.85895179  0.36408856  0.02630038    -0.77800
C197        C  0.83873492  0.32630772  0.01736012     0.83000
N198        N  0.81583458  0.32552583  0.00435955    -0.79500
C199        C  0.91846416  0.48417003  0.05320701     0.80500
N200        N  0.89985865  0.44534233  0.04480468    -0.77800
C201        C  0.87642009  0.44177457  0.03140685     0.82900
N202        N  0.87219698  0.47706943  0.02642522    -0.77800
C203        C  0.89101181  0.51566515  0.03473939     0.83000
N204        N  0.91367661  0.51859266  0.04804391    -0.79500
C205        C  0.14006892  0.34268472  0.83545040     0.80500
N206        N  0.10044252  0.32192276  0.84326554    -0.77800
C207        C  0.09398161  0.29216441  0.85500709     0.82900
N208        N  0.12675585  0.28270212  0.85862529    -0.77800
C209        C  0.16587613  0.30311575  0.85063604     0.83000
N210        N  0.17205523  0.33299290  0.83925922    -0.79500
C211        C  0.01187704  0.22599208  0.88569794     0.80500
N212        N  0.97719185  0.23146794  0.88161668    -0.77800
C213        C  0.97917029  0.25594767  0.86884927     0.82900
N214        N  0.01707756  0.27582332  0.86001062    -0.77800
C215        C  0.05225583  0.27039634  0.86402333     0.83000
N216        N  0.04937908  0.24531191  0.87682065    -0.79500
O217        O  0.57790779  0.18669337  0.81516889    -0.79900
O218        O  0.66752410  0.39252992  0.86855454    -0.81400
O219        O  0.64115842  0.34415553  0.81565976    -0.78400
O220        O  0.69652841  0.28286202  0.84733490    -0.76800
O221        O  0.66755663  0.23528683  0.86839834    -0.78600
O222        O  0.57606875  0.34555536  0.81342111    -0.79500
O223        O  0.69425067  0.37053397  0.84786428    -0.80900
O224        O  0.64334561  0.25412367  0.81619056    -0.81200
Eu225      Eu  0.63692464  0.29677640  0.83808873     2.39200
O226        O  0.62998061  0.29326874  0.86559861    -0.88700
O227        O  0.56525631  0.26009221  0.82662332    -0.92300
C228        C  0.61807804  0.21459821  0.81047794     1.02400
C229        C  0.69823432  0.39866131  0.85863429     1.02200
C230        C  0.61612390  0.35716956  0.80893218     1.02200
C231        C  0.69930780  0.25913563  0.85859316     1.00000
H232        H  0.61453473  0.36461166  0.84285857     0.29800
O233        O  0.59877667  0.33367334  0.84625040    -1.01100
H234        H  0.61366047  0.20619571  0.84317549     0.29800
O235        O  0.59766571  0.22115877  0.84628331    -1.03600
O236        O  0.54336574  0.32758852  0.89529095    -0.80800
O237        O  0.44874625  0.12324979  0.84053741    -0.80400
O238        O  0.53605737  0.36961670  0.84277490    -0.78800
O239        O  0.63066766  0.26057912  0.89662453    -0.82100
O240        O  0.57533478  0.14229328  0.86666616    -0.80000
O241        O  0.48603478  0.25217695  0.81188422    -0.78600
O242        O  0.42349460  0.23512202  0.86273103    -0.80200
O243        O  0.47466267  0.16787206  0.89284397    -0.82100
O244        O  0.45130487  0.28018353  0.84098325    -0.78800
O245        O  0.54149109  0.16972608  0.89474912    -0.81500
O246        O  0.57268129  0.38736924  0.86639069    -0.77200
O247        O  0.48414746  0.18487302  0.81219142    -0.77300
O248        O  0.53770823  0.12318221  0.84326390    -0.76900
O249        O  0.63244446  0.32774770  0.89754929    -0.80400
O250        O  0.47599186  0.26249308  0.89378394    -0.79800
O251        O  0.42411271  0.14574603  0.86167174    -0.78200
Eu252      Eu  0.59200241  0.33012901  0.87392053     2.39800
Eu253      Eu  0.52567810  0.18476638  0.83533326     2.39600
Eu254      Eu  0.52722765  0.29700033  0.83487938     2.38400
Eu255      Eu  0.59062801  0.21788441  0.87366693     2.39900
Eu256      Eu  0.48139427  0.21924438  0.87135851     2.39800
O257        O  0.51881184  0.18195861  0.86286578    -0.92600
O258        O  0.52077575  0.29403394  0.86251305    -0.91500
C259        C  0.50333573  0.30062240  0.90021351     1.02600
C260        C  0.41878726  0.11745879  0.85078963     1.01300
C261        C  0.55277131  0.39496949  0.85494235     1.00700
C262        C  0.64196753  0.29855254  0.90302353     1.02700
C263        C  0.55605227  0.11520491  0.85508955     1.01600
C264        C  0.47420779  0.21304733  0.80621115     1.00500
C265        C  0.42067970  0.25827422  0.85134400     1.00500
C266        C  0.50094439  0.15573570  0.89913086     1.03200
H267        H  0.45843950  0.20733864  0.83913490     0.30500
O268        O  0.48799097  0.22208237  0.84367003    -1.04700
H269        H  0.55061861  0.25327730  0.89374517     0.32600
O270        O  0.55305686  0.25481240  0.88242275    -1.07300
O271        O  0.81052805  0.86615555  0.98262910    -0.79900
O272        O  0.91699362  0.07143374  0.03744028    -0.81400
O273        O  0.78003596  0.95993186  0.01295412    -0.78400
O274        O  0.90117710  0.02234398  0.98455636    -0.76800
O275        O  0.96694489  0.02203406  0.98287727    -0.78600
O276        O  0.76093791  0.91593055  0.03495028    -0.79500
O277        O  0.87151566  0.04874318  0.01577912    -0.80900
O278        O  0.80906983  0.93174738  0.98324070    -0.81200
Eu279      Eu  0.85561015  0.97488297  0.00597881     2.39200
O280        O  0.92973082  0.01085591  0.01529135    -0.88700
O281        O  0.81951051  0.89978941  0.01402954    -0.92300
C282        C  0.79742366  0.89279337  0.97739762     1.02400
C283        C  0.89314170  0.07676848  0.02695742     1.02200
C284        C  0.75300829  0.93769449  0.02428476     1.02200
C285        C  0.93920373  0.03433643  0.97815247     1.00000
H286        H  0.84186515  0.98844740  0.03777009     0.29800
O287        O  0.85728194  0.97394791  0.03359231    -1.01100
H288        H  0.89306457  0.94025919  0.98422282     0.29800
O289        O  0.89303742  0.93917369  0.99557173    -1.03600
O290        O  0.97230172  0.00376725  0.06595869    -0.80800
O291        O  0.86884347  0.80111620  0.01037159    -0.80400
O292        O  0.82155529  0.94157480  0.06462756    -0.78800
O293        O  0.02635080  0.05005436  0.01153121    -0.82100
O294        O  0.96883922  0.93289090  0.98239576    -0.80000
O295        O  0.75788873  0.82645731  0.03351565    -0.78600
O296        O  0.88216133  0.85021236  0.06303525    -0.80200
O297        O  0.00313491  0.91110703  0.03414407    -0.82100
O298        O  0.81607812  0.85005940  0.06320687    -0.78800
O299        O  0.02359425  0.95373350  0.01169244    -0.81500
O300        O  0.88659292  0.00909419  0.06587885    -0.77200
O301        O  0.78123261  0.80542443  0.01161960    -0.77300
O302        O  0.90351467  0.86572635  0.98119135    -0.76900
O303        O  0.00690987  0.07051780  0.03449062    -0.80400
O304        O  0.97278419  0.93775596  0.06477853    -0.79800
O305        O  0.91249350  0.82467994  0.03241734    -0.78200
Eu306      Eu  0.93170619  0.01031127  0.04303881     2.39800
Eu307      Eu  0.85696046  0.86397332  0.00391704     2.39600
Eu308      Eu  0.81983370  0.89888959  0.04159173     2.38400
Eu309      Eu  0.96687343  0.97507707  0.00502750     2.39900
Eu310      Eu  0.92943077  0.89859120  0.04138624     2.39800
O311        O  0.93025258  0.90045749  0.01370787    -0.92600
O312        O  0.89319795  0.93506536  0.05138252    -0.91500
C313        C  0.98278130  0.97518919  0.07142115     1.02600
C314        C  0.89091264  0.79575294  0.02156792     1.01300
C315        C  0.84763551  0.97965162  0.07115464     1.00700
C316        C  0.03365131  0.07773521  0.02277315     1.02700
C317        C  0.94306991  0.89442952  0.97607201     1.01600
C318        C  0.75215785  0.79896753  0.02235563     1.00500
C319        C  0.84289622  0.83764223  0.06865252     1.00500
C320        C  0.02984538  0.93104984  0.02255119     1.03200
H321        H  0.84043160  0.83127566  0.03519141     0.30500
O322        O  0.85613133  0.86208266  0.03166765    -1.04700
H323        H  0.99888479  0.98843921  0.03657820     0.32600
O324        O  0.96842924  0.97393806  0.03284544    -1.07300
O325        O  0.63715710  0.33842841  0.39728257    -0.79900
O326        O  0.54805424  0.13312141  0.34471396    -0.81400
O327        O  0.55444361  0.18176191  0.39755104    -0.78400
O328        O  0.67766817  0.25536447  0.36847029    -0.76800
O329        O  0.69336911  0.29903743  0.34641183    -0.78600
O330        O  0.48520013  0.17504491  0.39755670    -0.79500
O331        O  0.59270562  0.15956221  0.36646369    -0.80900
O332        O  0.64225980  0.27481471  0.39809998    -0.81200
Eu333      Eu  0.59929839  0.23007074  0.37530776     2.39200
O334        O  0.60050576  0.23146618  0.34752078    -0.88700
O335        O  0.55634117  0.26069341  0.38424360    -0.92300
C336        C  0.65195684  0.31385770  0.40323942     1.02400
C337        C  0.57268667  0.13034499  0.35552801     1.02200
C338        C  0.51485679  0.16705775  0.40331486     1.02200
C339        C  0.70422767  0.28063185  0.35748107     1.00000
H340        H  0.51273157  0.15615094  0.36958884     0.29800
O341        O  0.52555493  0.18680827  0.36604194    -1.01100
H342        H  0.66002833  0.32204038  0.36974143     0.29800
O343        O  0.62966246  0.30420981  0.36607739    -1.03600
O344        O  0.47573896  0.18367025  0.31760966    -0.80800
O345        O  0.56795458  0.39200785  0.36875593    -0.80400
O346        O  0.42709279  0.14045462  0.36657921    -0.78800
O347        O  0.63150874  0.26476430  0.31544651    -0.82100
O348        O  0.68457872  0.38171660  0.34514331    -0.80000
O349        O  0.48199672  0.25749364  0.39886554    -0.78600
O350        O  0.43580425  0.27253636  0.34730047    -0.80200
O351        O  0.55447498  0.34074511  0.31680271    -0.82100
O352        O  0.41753515  0.22532075  0.36844278    -0.78800
O353        O  0.62442603  0.34926822  0.31634525    -0.81500
O354        O  0.45537696  0.12499072  0.34473807    -0.77200
O355        O  0.54373993  0.32791706  0.39912281    -0.77300
O356        O  0.66141940  0.40017789  0.36764554    -0.76900
O357        O  0.56996211  0.19454712  0.31499023    -0.80400
O358        O  0.46556164  0.24429045  0.31749459    -0.79800
O359        O  0.52487372  0.36798452  0.34652448    -0.78200
Eu360      Eu  0.52681760  0.18947118  0.33841495     2.39800
Eu361      Eu  0.58814469  0.33540560  0.37567840     2.39600
Eu362      Eu  0.48238362  0.21748878  0.37515440     2.38400
Eu363      Eu  0.62860123  0.30528853  0.33846335     2.39900
Eu364      Eu  0.51214607  0.29336196  0.33915589     2.39800
O365        O  0.58628628  0.33599135  0.34809680    -0.92600
O366        O  0.48299061  0.21901582  0.34770340    -0.91500
C367        C  0.45787294  0.20592443  0.31220874     1.02600
C368        C  0.54584520  0.39698773  0.35749568     1.01300
C369        C  0.42490192  0.11474976  0.35514927     1.00700
C370        C  0.60681013  0.22599393  0.30915589     1.02700
C371        C  0.68962223  0.40895646  0.35629364     1.01600
C372        C  0.50717459  0.29627079  0.40513966     1.00500
C373        C  0.40852591  0.24708674  0.35809464     1.00500
C374        C  0.59391271  0.35665226  0.31088165     1.03200
H375        H  0.49608781  0.30525740  0.37100132     0.30500
O376        O  0.51333612  0.29266195  0.36684906    -1.04700
H377        H  0.55434600  0.26333188  0.31797798     0.32600
O378        O  0.55501994  0.26309808  0.32932607    -1.07300
O379        O  0.36205422  0.71291715  0.67865016    -0.79900
O380        O  0.15504366  0.60558034  0.73065459    -0.81400
O381        O  0.24763297  0.73155737  0.69862275    -0.78400
O382        O  0.30469611  0.67423593  0.73136417    -0.76800
O383        O  0.30852524  0.60997121  0.73270577    -0.78600
O384        O  0.20437719  0.70697420  0.67646774    -0.79500
O385        O  0.21865737  0.67450972  0.72993594    -0.80900
O386        O  0.33762255  0.73431717  0.70011123    -0.81200
Eu387      Eu  0.26308881  0.67322593  0.70781822     2.39200
O388        O  0.22813972  0.59965026  0.71762030    -0.88700
O389        O  0.26358441  0.67086163  0.68033132    -0.92300
C390        C  0.36665770  0.74131955  0.68930750     1.02400
C391        C  0.18099400  0.64554991  0.73607544     1.02200
C392        C  0.22640079  0.73671595  0.68709110     1.02200
C393        C  0.31670944  0.64833154  0.73806664     1.00000
H394        H  0.17295378  0.64748070  0.70196821     0.29800
O395        O  0.18898485  0.63283961  0.69852224    -1.01100
H396        H  0.33378325  0.65505788  0.70420664     0.29800
O397        O  0.30365316  0.63854553  0.70019134    -1.03600
O398        O  0.09463719  0.48229564  0.70116850    -0.80800
O399        O  0.30560904  0.59263379  0.65042691    -0.80400
O400        O  0.11279402  0.61353127  0.67783677    -0.78800
O401        O  0.22361044  0.52235587  0.73271534    -0.82100
O402        O  0.34322065  0.57957451  0.70379461    -0.80000
O403        O  0.23748774  0.67596274  0.64857070    -0.78600
O404        O  0.15410681  0.52071253  0.64935962    -0.80200
O405        O  0.21146697  0.46334837  0.68060615    -0.82100
O406        O  0.14880919  0.58416324  0.64800395    -0.78800
O407        O  0.25331200  0.48919821  0.70301333    -0.81500
O408        O  0.09425762  0.57121032  0.70029738    -0.77200
O409        O  0.30556472  0.68010359  0.64961450    -0.77300
O410        O  0.36453823  0.62292934  0.68155393    -0.76900
O411        O  0.15540489  0.51777880  0.73197168    -0.80400
O412        O  0.12149427  0.46398798  0.67959167    -0.79800
O413        O  0.24192741  0.52395831  0.64980113    -0.78200
Eu414      Eu  0.15453495  0.55890142  0.70846640     2.39800
Eu415      Eu  0.30427970  0.63632929  0.67262494     2.39600
Eu416      Eu  0.18974019  0.63095645  0.67079910     2.38400
Eu417      Eu  0.26774698  0.56438582  0.70981614     2.39900
Eu418      Eu  0.19677088  0.52305928  0.67253134     2.39800
O419        O  0.27030700  0.56246983  0.68218305    -0.92600
O420        O  0.15587369  0.55717716  0.68074569    -0.91500
C421        C  0.09102024  0.45545988  0.68992760     1.02600
C422        C  0.28013593  0.55398234  0.64418971     1.01300
C423        C  0.08558382  0.59100106  0.68915211     1.00700
C424        C  0.18450640  0.50983761  0.73837514     1.02700
C425        C  0.37146322  0.60185713  0.69282121     1.01600
C426        C  0.27730174  0.68936556  0.64327290     1.00500
C427        C  0.14123377  0.54588640  0.64270670     1.00500
C428        C  0.23287710  0.45926338  0.69230528     1.03200
H429        H  0.23169525  0.59643494  0.65167175     0.30500
O430        O  0.23082457  0.59679104  0.66301102    -1.04700
H431        H  0.17956733  0.49339708  0.70428328     0.32600
O432        O  0.19424043  0.52368659  0.70023503    -1.07300
O433        O  0.22646728  0.51692387  0.14580596    -0.79900
O434        O  0.34177975  0.72700032  0.19704278    -0.81400
O435        O  0.29132922  0.67150393  0.14492645    -0.78400
O436        O  0.35665712  0.61641940  0.17517904    -0.76800
O437        O  0.33525728  0.57389954  0.19763119    -0.78600
O438        O  0.22650303  0.67398983  0.14556020    -0.79500
O439        O  0.35822194  0.70145325  0.17467024    -0.80900
O440        O  0.29508557  0.58073668  0.14619783    -0.81200
Eu441      Eu  0.29484432  0.62845313  0.16757247     2.39200
O442        O  0.29694439  0.62973060  0.19515931    -0.88700
O443        O  0.22032694  0.59353349  0.15876268    -0.92300
C444        C  0.26645474  0.54235334  0.14038286     1.02400
C445        C  0.36837021  0.73039859  0.18575696     1.02200
C446        C  0.26423399  0.68358968  0.13931026     1.02200
C447        C  0.36364008  0.59599817  0.18660684     1.00000
H448        H  0.27630293  0.69802358  0.17301998     0.29800
O449        O  0.26057096  0.66782527  0.17714907    -1.01100
H450        H  0.27207400  0.53885663  0.17371854     0.29800
O451        O  0.25767021  0.55482535  0.17747912    -1.03600
O452        O  0.21972463  0.67216726  0.22692522    -0.80800
O453        O  0.10931916  0.46074471  0.17682918    -0.80400
O454        O  0.20212504  0.70738428  0.17582114    -0.78800
O455        O  0.30845187  0.60414958  0.22662235    -0.82100
O456        O  0.24189275  0.47963737  0.19858509    -0.80000
O457        O  0.13475490  0.58424975  0.14767505    -0.78600
O458        O  0.09025690  0.57402829  0.20022754    -0.80200
O459        O  0.15270888  0.51813642  0.22939689    -0.82100
O460        O  0.11023973  0.61574561  0.17760246    -0.78800
O461        O  0.21600204  0.51299502  0.22826999    -0.81500
O462        O  0.25121090  0.73096367  0.19648286    -0.77200
O463        O  0.13447706  0.51782242  0.14702489    -0.77300
O464        O  0.19611048  0.45981354  0.17707943    -0.76900
O465        O  0.31120516  0.67181038  0.22735395    -0.80400
O466        O  0.15186583  0.60758502  0.22830258    -0.79800
O467        O  0.09148730  0.48427225  0.19943348    -0.78200
Eu468      Eu  0.26454147  0.67031564  0.20487170     2.39800
Eu469      Eu  0.18333525  0.52003834  0.16861695     2.39600
Eu470      Eu  0.18498320  0.63145323  0.16892695     2.38400
Eu471      Eu  0.25970769  0.55648754  0.20524778     2.39900
Eu472      Eu  0.15134805  0.56036019  0.20643911     2.39800
O473        O  0.18536445  0.52129453  0.19642424    -0.92600
O474        O  0.18928380  0.63419131  0.19658763    -0.91500
C475        C  0.18099538  0.64705217  0.23323812     1.02600
C476        C  0.08306983  0.45538036  0.18839384     1.01300
C477        C  0.22762702  0.73688493  0.18598447     1.00700
C478        C  0.32247479  0.64353469  0.23250284     1.02700
C479        C  0.21749892  0.45173894  0.18778397     1.01600
C480        C  0.12158576  0.54483524  0.14195340     1.00500
C481        C  0.08279861  0.59449091  0.18899015     1.00500
C482        C  0.17897215  0.50486271  0.23475754     1.03200
H483        H  0.11742026  0.54287626  0.17543656     0.30500
O484        O  0.14825272  0.55806496  0.17875332    -1.04700
H485        H  0.22733225  0.59738392  0.22626810     0.32600
O486        O  0.22621061  0.59649563  0.21492129    -1.07300
O487        O  0.88893195  0.00679542  0.56269059    -0.79900
O488        O  0.79067150  0.79884808  0.50981492    -0.81400
O489        O  0.76603436  0.90912989  0.53528621    -0.78400
O490        O  0.82860470  0.84712691  0.56201561    -0.76800
O491        O  0.89481240  0.84753897  0.56162648    -0.78600
O492        O  0.78512785  0.95117362  0.51270479    -0.79500
O493        O  0.76915603  0.82063657  0.53198664    -0.80900
O494        O  0.82341610  0.93971855  0.56361590    -0.81200
Eu495      Eu  0.82721365  0.89544388  0.54104923     2.39200
O496        O  0.86455437  0.85972804  0.53086061    -0.88700
O497        O  0.86271880  0.96944262  0.53163654    -0.92300
C498        C  0.85017302  0.98001773  0.56864182     1.02400
C499        C  0.76246450  0.79249903  0.52083015     1.02200
C500        C  0.75823094  0.92977166  0.52420962     1.02200
C501        C  0.85542626  0.83419698  0.56715516     1.00000
H502        H  0.79617785  0.88031616  0.50950526     0.29800
O503        O  0.82664270  0.89612599  0.51321758    -1.01100
H504        H  0.90136112  0.93292230  0.56169415     0.29800
O505        O  0.90120815  0.93358549  0.55033990    -1.03600
O506        O  0.91351744  0.86753995  0.48075773    -0.80800
O507        O  0.01070202  0.07132887  0.53389949    -0.80400
O508        O  0.81596423  0.92376475  0.48143320    -0.78800
O509        O  0.92872848  0.82506271  0.53180570    -0.82100
O510        O  0.98422555  0.94297862  0.56157196    -0.80000
O511        O  0.87144819  0.04310578  0.51204362    -0.78600
O512        O  0.96951092  0.01787201  0.48199115    -0.80200
O513        O  0.03659034  0.96303628  0.51125865    -0.82100
O514        O  0.90347238  0.01779819  0.48136373    -0.78800
O515        O  0.01603220  0.91939991  0.53343499    -0.81500
O516        O  0.81843909  0.85872745  0.48087631    -0.77200
O517        O  0.91530600  0.06502514  0.53412191    -0.77300
O518        O  0.98459530  0.00942856  0.56295839    -0.76900
O519        O  0.88368730  0.80298980  0.51008897    -0.80400
O520        O  0.97850251  0.93534254  0.48077892    -0.79800
O521        O  0.03342859  0.04945259  0.51208736    -0.78200
Eu522      Eu  0.86525399  0.86134583  0.50313189     2.39800
Eu523      Eu  0.93635110  0.00847442  0.54109566     2.39600
Eu524      Eu  0.86085625  0.97028014  0.50395429     2.38400
Eu525      Eu  0.93850251  0.89771231  0.53993470     2.39900
Eu526      Eu  0.97414831  0.97473438  0.50394215     2.39800
O527        O  0.97369590  0.97260799  0.53140553    -0.92600
O528        O  0.90028887  0.93613372  0.49437902    -0.91500
C529        C  0.95212722  0.89625897  0.47500631     1.02600
C530        C  0.03953668  0.07761362  0.52311788     1.01300
C531        C  0.80535392  0.88518137  0.47542735     1.00700
C532        C  0.90707854  0.79710903  0.52068962     1.02700
C533        C  0.99728362  0.98177630  0.56758882     1.01600
C534        C  0.89194431  0.07056248  0.52340199     1.00500
C535        C  0.94249478  0.02908771  0.47585510     1.00500
C536        C  0.04433827  0.94279959  0.52257213     1.03200
H537        H  0.94984896  0.04045020  0.50971405     0.30500
O538        O  0.93539179  0.00974811  0.51334583    -1.04700
H539        H  0.95569661  0.88583236  0.50836435     0.32600
O540        O  0.93932087  0.89958565  0.51232665    -1.07300
C541        C  0.01214479  0.15459003  0.92045008     0.16200
C542        C  0.01949884  0.12827302  0.93136746    -0.32800
C543        C  0.98746685  0.10688272  0.94330313     0.20600
C544        C  0.95014978  0.11177807  0.94422724     0.02800
C545        C  0.94308090  0.13813646  0.93349596    -0.22500
C546        C  0.97472148  0.15916208  0.92164629     0.12000
S547        S  0.04560250  0.18236558  0.90469248    -0.06200
C548        C  0.00811549  0.19948918  0.89976743    -0.09700
C549        C  0.97236918  0.18487272  0.90995521    -0.26300
S550        S  0.91459921  0.08322898  0.95910613    -0.03500
C551        C  0.95020222  0.06430615  0.96449307    -0.16900
C552        C  0.98778051  0.07946323  0.95503081    -0.14900
H553        H  0.04851062  0.12431434  0.93051088     0.20400
H554        H  0.91380077  0.14170566  0.93424977     0.16500
H555        H  0.94546120  0.19208190  0.90874737     0.19000
H556        H  0.01358857  0.07084781  0.95660249     0.12300
C557        C  0.88366210  0.27643299  0.85617497     0.16200
C558        C  0.85507867  0.28977940  0.84934734    -0.29800
C559        C  0.81228355  0.27288639  0.85603210     0.20600
C560        C  0.79893934  0.24422975  0.86889825     0.02800
C561        C  0.82724994  0.23100747  0.87563753    -0.22500
C562        C  0.86957007  0.24767182  0.86899358     0.12000
S563        S  0.93709799  0.29272136  0.85016337    -0.06200
C564        C  0.93985761  0.26034006  0.86516642    -0.09700
C565        C  0.90128098  0.23834785  0.87411776    -0.26300
S566        S  0.74635376  0.22699660  0.87542316    -0.03500
C567        C  0.74131470  0.25835757  0.86063802    -0.16900
C568        C  0.77914267  0.28123410  0.85120224    -0.14900
H569        H  0.86564929  0.31220288  0.83931671     0.20400
H570        H  0.81669094  0.20856849  0.88567375     0.16500
H571        H  0.89657509  0.21660190  0.88403220     0.19000
H572        H  0.78212268  0.30250125  0.84134424     0.12300
C573        C  0.18164783  0.41998908  0.79977516     0.16200
C574        C  0.20670384  0.44532589  0.78692573    -0.32800
C575        C  0.18483497  0.45640384  0.77554263     0.20600
C576        C  0.14006347  0.44348485  0.77692350     0.02800
C577        C  0.11482410  0.41799766  0.78988330    -0.22500
C578        C  0.13667234  0.40630626  0.80125109     0.12000
S579        S  0.20215249  0.40144317  0.81416647    -0.06200
C580        C  0.14939855  0.37377506  0.82227362    -0.09700
C581        C  0.11781782  0.37975984  0.81431307    -0.26300
S582        S  0.12022081  0.46081206  0.76165237    -0.03500
C583        C  0.17277371  0.48508315  0.75335404    -0.16900
C584        C  0.20366385  0.48000815  0.76209177    -0.14900
H585        H  0.24163541  0.45533543  0.78571796     0.20400
H586        H  0.07969360  0.40723770  0.79093246     0.16500
H587        H  0.08285882  0.36405948  0.81748076     0.19000
H588        H  0.23827066  0.49309508  0.75881654     0.12300
C589        C  0.32647744  0.28155172  0.84336901     0.16200
C590        C  0.30066691  0.29866785  0.83750957    -0.32800
C591        C  0.26333747  0.29068769  0.84618438     0.20600
C592        C  0.25127449  0.26624226  0.86006463     0.02800
C593        C  0.27743110  0.24894702  0.86603785    -0.22500
C594        C  0.31548301  0.25742262  0.85733954     0.12000
S595        S  0.37392262  0.28987695  0.83460370    -0.06200
C596        C  0.38017565  0.26127742  0.85001370    -0.09700
C597        C  0.34640797  0.24532808  0.86122295    -0.26300
S598        S  0.20350393  0.26036640  0.86842440    -0.03500
C599        C  0.20093280  0.29166443  0.85301400    -0.16900
C600        C  0.23508446  0.30540394  0.84219202    -0.14900
H601        H  0.30960661  0.31791026  0.82668679     0.20400
H602        H  0.26881321  0.23019696  0.87695445     0.16500
H603        H  0.34537511  0.22732877  0.87181445     0.19000
H604        H  0.23892014  0.32491258  0.83169414     0.12300
C605        C  0.99045826  0.52333831  0.09043977     0.16200
C606        C  0.01693047  0.54886417  0.10304122    -0.32800
C607        C  0.04128365  0.53296248  0.11119423     0.20600
C608        C  0.03903781  0.49299211  0.10714509     0.02800
C609        C  0.01221540  0.46716191  0.09448207    -0.22500
C610        C  0.98808424  0.48343018  0.08615141     0.12000
S611        S  0.96054467  0.53874078  0.07883378    -0.06200
C612        C  0.94464740  0.49129012  0.06773346    -0.09700
C613        C  0.96143449  0.46454067  0.07308162    -0.26300
S614        S  0.07185891  0.48021350  0.11862397    -0.03500
C615        C  0.08914665  0.52963691  0.12878033    -0.16900
C616        C  0.06976434  0.55400815  0.12350465    -0.14900
H617        H  0.01901494  0.58025740  0.10620173     0.20400
H618        H  0.01072946  0.43617504  0.09114753     0.16500
H619        H  0.95572671  0.43398423  0.06745705     0.19000
H620        H  0.07627015  0.58569923  0.12839179     0.12300
C621        C  0.90703936  0.69712147  0.03091609     0.16200
C622        C  0.91966668  0.66907296  0.03808184    -0.32800
C623        C  0.90260838  0.62628174  0.03195770     0.20600
C624        C  0.87438099  0.61144500  0.01906173     0.02800
C625        C  0.86173073  0.64005892  0.01167013    -0.22500
C626        C  0.87867904  0.68341805  0.01802033     0.12000
S627        S  0.92392421  0.74937492  0.03742068    -0.06200
C628        C  0.89257008  0.75413892  0.02270868    -0.09700
C629        C  0.87010109  0.71652270  0.01314436    -0.26300
S630        S  0.85716367  0.55685130  0.01405760    -0.03500
C631        C  0.88812298  0.55501984  0.02972829    -0.16900
C632        C  0.91056591  0.59460927  0.03800140    -0.14900
H633        H  0.94148254  0.67999014  0.04824304     0.20400
H634        H  0.83939693  0.62892495  0.00166496     0.16500
H635        H  0.84856460  0.71344902  0.00341675     0.19000
H636        H  0.93147069  0.60001939  0.04819255     0.12300
C637        C  0.83711918  0.21519957  0.01874282     0.16200
C638        C  0.83103370  0.17348045  0.01464296    -0.32800
C639        C  0.85796523  0.15961999  0.02199335     0.20600
C640        C  0.88907018  0.18538674  0.03332920     0.02800
C641        C  0.89503519  0.22753309  0.03759463    -0.22500
C642        C  0.86855148  0.24209638  0.02984737     0.12000
S643        S  0.80968822  0.23826871  0.00991605    -0.06200
C644        C  0.84143452  0.28589789  0.02083164    -0.09700
C645        C  0.87099438  0.28312758  0.03122786    -0.26300
S646        S  0.91825248  0.16123072  0.04063316    -0.03500
C647        C  0.88846860  0.11684669  0.02793088    -0.16900
C648        C  0.85759888  0.12081163  0.01883628    -0.14900
H649        H  0.80706423  0.15313209  0.00571936     0.20400
H650        H  0.91981148  0.24837277  0.04621375     0.16500
H651        H  0.89426860  0.31013859  0.03872887     0.19000
H652        H  0.83560752  0.09630152  0.01032394     0.12300
C653        C  0.74509665  0.36338750  0.96433889     0.16200
C654        C  0.71992167  0.37103087  0.95305407    -0.32800
C655        C  0.70318761  0.34141667  0.94022217     0.20600
C656        C  0.71125764  0.30603272  0.93883614     0.02800
C657        C  0.73604543  0.29841845  0.95002234    -0.22500
C658        C  0.75256070  0.32770997  0.96272613     0.12000
S659        S  0.76860836  0.39473316  0.98090627    -0.06200
C660        C  0.78773327  0.35860268  0.98560340    -0.09700
C661        C  0.77677411  0.32480899  0.97478540    -0.26300
S662        S  0.68886638  0.27364479  0.92274181    -0.03500
C663        C  0.66814134  0.30789453  0.91750809    -0.16900
C664        C  0.67817242  0.34273194  0.92787835    -0.14900
H665        H  0.71368563  0.39865375  0.95421855     0.20400
H666        H  0.74213233  0.27066839  0.94888567     0.16500
H667        H  0.78583038  0.29905355  0.97573092     0.19000
H668        H  0.66770576  0.36730566  0.92649705     0.12300
C669        C  0.91207462  0.59233267  0.17219520     0.16200
C670        C  0.95243555  0.59705491  0.16703418    -0.32800
C671        C  0.97978530  0.59319127  0.17820053     0.20600
C672        C  0.96711788  0.58372826  0.19383848     0.02800
C673        C  0.92631938  0.57894391  0.19906736    -0.22500
C674        C  0.89918016  0.58396463  0.18785520     0.12000
S675        S  0.87697374  0.59962743  0.16037843    -0.06200
C676        C  0.84447506  0.59287282  0.17663262    -0.09700
C677        C  0.85977411  0.58389569  0.19051893    -0.26300
S678        S  0.00561149  0.57979896  0.20534547    -0.03500
C679        C  0.03921527  0.59232968  0.18890052    -0.16900
C680        C  0.02097996  0.59850516  0.17533236    -0.14900
H681        H  0.96262816  0.60458275  0.15484442     0.20400
H682        H  0.91666280  0.57253972  0.21132359     0.16500
H683        H  0.84457675  0.58025987  0.20195213     0.19000
H684        H  0.03681973  0.60595139  0.16387668     0.12300
C685        C  0.82330829  0.71809178  0.12388409     0.16200
C686        C  0.84949221  0.74394666  0.11130369    -0.32800
C687        C  0.83222334  0.76438921  0.10171784     0.20600
C688        C  0.79048334  0.75933126  0.10445735     0.02800
C689        C  0.76391851  0.73303827  0.11714807    -0.22500
C690        C  0.78142172  0.71246347  0.12687957     0.12000
S691        S  0.83956228  0.69134545  0.13655183    -0.06200
C692        C  0.78941539  0.67146372  0.14632377    -0.09700
C693        C  0.76149359  0.68549532  0.13990996    -0.26300
S694        S  0.77649567  0.78799641  0.09134758    -0.03500
C695        C  0.82761008  0.80691196  0.08228319    -0.16900
C696        C  0.85349783  0.79130270  0.08907995    -0.14900
H697        H  0.88217716  0.74810521  0.10911974     0.20400
H698        H  0.73132174  0.72900791  0.11935884     0.16500
H699        H  0.72873223  0.67632727  0.14438457     0.19000
H700        H  0.88646809  0.79955464  0.08508793     0.12300
C701        C  0.66669915  0.47174673  0.25186263     0.16200
C702        C  0.67429013  0.44710117  0.26346019    -0.32800
C703        C  0.64174800  0.42624814  0.27533501     0.20600
C704        C  0.60358423  0.42976281  0.27554467     0.02800
C705        C  0.59624516  0.45434146  0.26412199    -0.22500
C706        C  0.62850803  0.47506560  0.25240168     0.12000
S707        S  0.70087249  0.49934624  0.23611417    -0.06200
C708        C  0.66279929  0.51506807  0.23040734    -0.09700
C709        C  0.62625558  0.49972905  0.24033030    -0.26300
S710        S  0.56755014  0.40200527  0.29050178    -0.03500
C711        C  0.60409144  0.38530177  0.29685441    -0.16900
C712        C  0.64232471  0.40068763  0.28767747    -0.14900
H713        H  0.70395654  0.44415207  0.26321134     0.20400
H714        H  0.56641149  0.45703761  0.26431199     0.16500
H715        H  0.59873524  0.50584929  0.23872753     0.19000
H716        H  0.66878490  0.39332217  0.28984810     0.12300
C717        C  0.47887165  0.60463838  0.18292276     0.16200
C718        C  0.52052311  0.61059287  0.17815829    -0.32800
C719        C  0.54130400  0.59371735  0.18808126     0.20600
C720        C  0.52118851  0.57220169  0.20205199     0.02800
C721        C  0.48010514  0.56656244  0.20681323    -0.22500
C722        C  0.45946345  0.58307037  0.19694580     0.12000
S723        S  0.44699139  0.62097789  0.17254078    -0.06200
C724        C  0.40708213  0.59767002  0.18719311    -0.09700
C725        C  0.41873165  0.57923654  0.19949955    -0.26300
S726        S  0.55020944  0.55362384  0.21253993    -0.03500
C727        C  0.59093118  0.57515075  0.19816933    -0.16900
C728        C  0.58174883  0.59556377  0.18572784    -0.14900
H729        H  0.53578285  0.62722559  0.16718712     0.20400
H730        H  0.46462914  0.54955403  0.21772175     0.16500
H731        H  0.39807960  0.56305476  0.20970879     0.19000
H732        H  0.60323268  0.61078430  0.17563486     0.12300
C733        C  0.32823704  0.76527598  0.60674546     0.16200
C734        C  0.35554845  0.79402264  0.59464644    -0.32800
C735        C  0.33614513  0.81070005  0.58400499     0.20600
C736        C  0.29163333  0.79882833  0.58543738     0.02800
C737        C  0.26461689  0.77029559  0.59739495    -0.22500
C738        C  0.28391379  0.75407029  0.60800223     0.12000
S739        S  0.34471783  0.74178603  0.62112972    -0.06200
C740        C  0.29137253  0.71734092  0.62890032    -0.09700
C741        C  0.26275132  0.72682623  0.62058653    -0.26300
S742        S  0.27386615  0.82279938  0.57202301    -0.03500
C743        C  0.32695382  0.84997873  0.56420897    -0.16900
C744        C  0.35680283  0.84012947  0.57165266    -0.14900
H745        H  0.39032302  0.80331132  0.59368389     0.20400
H746        H  0.23001312  0.76156602  0.59850936     0.16500
H747        H  0.22816405  0.71466798  0.62364638     0.19000
H748        H  0.39168510  0.85463273  0.56853906     0.12300
C749        C  0.21659570  0.94769751  0.54046372     0.16200
C750        C  0.17752829  0.94621813  0.54570673    -0.32800
C751        C  0.14912864  0.94799804  0.53436569     0.20600
C752        C  0.15985726  0.95263269  0.51850856     0.02800
C753        C  0.19924599  0.95437251  0.51325381    -0.22500
C754        C  0.22717250  0.95124394  0.52459801     0.12000
S755        S  0.25221196  0.94089248  0.55234886    -0.06200
C756        C  0.28142033  0.94137120  0.53584636    -0.09700
C757        C  0.26483263  0.94808429  0.52184776    -0.26300
S758        S  0.12051637  0.95390283  0.50665532    -0.03500
C759        C  0.08878981  0.94672567  0.52320537    -0.16900
C760        C  0.10833177  0.94420496  0.53712426    -0.14900
H761        H  0.16884574  0.94220597  0.55807214     0.20400
H762        H  0.20705028  0.95666954  0.50084187     0.16500
H763        H  0.27751139  0.94735060  0.51028753     0.19000
H764        H  0.09341745  0.93975933  0.54866260     0.12300
C765        C  0.47012310  0.09815836  0.44132648     0.16200
C766        C  0.44736675  0.07711075  0.45528936    -0.32800
C767        C  0.46152416  0.05108889  0.46352218     0.20600
C768        C  0.49653551  0.04633190  0.45792969     0.02800
C769        C  0.51917069  0.06729366  0.44409011    -0.22500
C770        C  0.50538334  0.09345021  0.43600326     0.12000
S771        S  0.45852485  0.13116253  0.42953882    -0.06200
C772        C  0.50219211  0.13908140  0.41756065    -0.09700
C773        C  0.52404161  0.11696207  0.42246647    -0.26300
S774        S  0.50939364  0.01409227  0.46928671    -0.03500
C775        C  0.46728568  0.00651869  0.48197265    -0.16900
C776        C  0.44437014  0.02812418  0.47744143    -0.14900
H777        H  0.42005653  0.08098335  0.45955359     0.20400
H778        H  0.54662799  0.06358994  0.43985911     0.16500
H779        H  0.55193346  0.11779656  0.41639737     0.19000
H780        H  0.41722233  0.02743605  0.48397547     0.12300
C781        C  0.64503620  0.92326306  0.53036717     0.16200
C782        C  0.60600905  0.92160332  0.53605253    -0.32800
C783        C  0.57614162  0.92210721  0.52490996     0.20600
C784        C  0.58481176  0.92334819  0.50893315     0.02800
C785        C  0.62349935  0.92512733  0.50332286    -0.22500
C786        C  0.65350664  0.92563394  0.51435557     0.12000
S787        S  0.68609513  0.92347436  0.54166254    -0.06200
C788        C  0.71495663  0.92801049  0.52454279    -0.09700
C789        C  0.69354646  0.92884631  0.51096544    -0.26300
S790        S  0.54708226  0.92636146  0.49714193    -0.03500
C791        C  0.51922482  0.92744953  0.51376003    -0.16900
C792        C  0.53791789  0.92412113  0.52781450    -0.14900
H793        H  0.59968680  0.92083960  0.54854654     0.20400
H794        H  0.63046086  0.92717433  0.49083683     0.16500
H795        H  0.70636148  0.93105595  0.49917920     0.19000
H796        H  0.52617615  0.92627371  0.53939273     0.12300
C797        C  0.22005148  0.90289307  0.66821280     0.16200
C798        C  0.20828173  0.85890404  0.66437465    -0.32800
C799        C  0.21982958  0.83550180  0.67502468     0.20600
C800        C  0.24225970  0.85509173  0.68887828     0.02800
C801        C  0.25394969  0.89923108  0.69274905    -0.22500
C802        C  0.24223878  0.92272352  0.68208709     0.12000
S803        S  0.20840272  0.93603174  0.65680617    -0.06200
C804        C  0.23327127  0.97744734  0.67084516    -0.09700
C805        C  0.24997736  0.96580100  0.68371459    -0.26300
S806        S  0.25391795  0.82117293  0.70007924    -0.03500
C807        C  0.22825158  0.78020805  0.68594877    -0.16900
C808        C  0.21152419  0.79251991  0.67328654    -0.14900
H809        H  0.19083814  0.84358719  0.65354460     0.20400
H810        H  0.27137706  0.91453134  0.70357624     0.16500
H811        H  0.26623892  0.98724802  0.69371915     0.19000
H812        H  0.19482802  0.77146041  0.66323248     0.12300
C813        C  0.13255169  0.06172264  0.62078241     0.16200
C814        C  0.10015312  0.06547369  0.61199144    -0.32800
C815        C  0.07839953  0.03414172  0.59988904     0.20600
C816        C  0.08888397  0.00104878  0.59674606     0.02800
C817        C  0.12179950  0.99810635  0.60516574    -0.22500
C818        C  0.14306522  0.02892645  0.61721563     0.12000
S819        S  0.15952621  0.09264265  0.63709050    -0.06200
C820        C  0.18421881  0.06016076  0.63905393    -0.09700
C821        C  0.17307450  0.02844393  0.62739190    -0.26300
S822        S  0.05818442  0.96482007  0.58235061    -0.03500
C823        C  0.03091379  0.99467018  0.58007726    -0.16900
C824        C  0.04506845  0.03090255  0.59017466    -0.14900
H825        H  0.09138485  0.09070306  0.61475104     0.20400
H826        H  0.12956369  0.97195736  0.60273440     0.16500
H827        H  0.18413265  0.00414035  0.62693470     0.19000
H828        H  0.03171893  0.05331736  0.59042468     0.12300
C829        C  0.25016798  0.36095083  0.70183026     0.16200
C830        C  0.26422376  0.33318194  0.70843825    -0.32800
C831        C  0.25162759  0.29269292  0.70091829     0.20600
C832        C  0.22580933  0.27974265  0.68740263     0.02800
C833        C  0.21140037  0.30771860  0.68073538    -0.22500
C834        C  0.22444703  0.34883167  0.68827161     0.12000
S835        S  0.26358358  0.41173672  0.70926655    -0.06200
C836        C  0.23478285  0.41781214  0.69390561    -0.09700
C837        C  0.21529619  0.38161260  0.68362232    -0.26300
S838        S  0.21550664  0.22906514  0.68010000    -0.03500
C839        C  0.24670190  0.22617583  0.69543395    -0.16900
C840        C  0.26347125  0.26236432  0.70555745    -0.14900
H841        H  0.28467014  0.34301364  0.71894115     0.20400
H842        H  0.19152109  0.29819540  0.67010768     0.16500
H843        H  0.19609315  0.37965258  0.67329556     0.19000
H844        H  0.28412875  0.26680684  0.71573418     0.12300
C845        C  0.37825966  0.20400982  0.74606056     0.16200
C846        C  0.40733721  0.23073074  0.75783358    -0.32800
C847        C  0.41705615  0.20934731  0.76977871     0.20600
C848        C  0.39914016  0.16322613  0.77000497     0.02800
C849        C  0.36972165  0.13615339  0.75811093    -0.22500
C850        C  0.35958727  0.15774477  0.74610176     0.12000
S851        S  0.36119456  0.22456671  0.73126150    -0.06200
C852        C  0.32760074  0.17036634  0.72492029    -0.09700
C853        C  0.33042099  0.13795227  0.73374643    -0.26300
S854        S  0.41611069  0.14451653  0.78571339    -0.03500
C855        C  0.44711987  0.19952787  0.79187233    -0.16900
C856        C  0.44416564  0.23021440  0.78227815    -0.14900
H857        H  0.42134091  0.26676130  0.75779887     0.20400
H858        H  0.35512447  0.10006785  0.75830134     0.16500
H859        H  0.31084494  0.10217979  0.73170141     0.19000
H860        H  0.46129332  0.26607942  0.78426692     0.12300
C861        C  0.59797381  0.03641070  0.36284241     0.16200
C862        C  0.61373677  0.00968096  0.36909682    -0.32800
C863        C  0.59317695  0.96519318  0.36419936     0.20600
C864        C  0.55861506  0.94762265  0.35336901     0.02800
C865        C  0.54255766  0.97458740  0.34705554    -0.22500
C866        C  0.56307855  0.01947877  0.35211733     0.12000
S867        S  0.61797560  0.09058178  0.36806133    -0.06200
C868        C  0.57854870  0.09104368  0.35591205    -0.09700
C869        C  0.55183868  0.05109286  0.34795711    -0.26300
S870        S  0.53936511  0.89237863  0.34892756    -0.03500
C871        C  0.57832558  0.89374507  0.36193187    -0.16900
C872        C  0.60425615  0.93464368  0.36919970    -0.14900
H873        H  0.64071646  0.02293601  0.37757794     0.20400
H874        H  0.51527480  0.96119590  0.33870789     0.16500
H875        H  0.52482307  0.04507524  0.34007513     0.19000
H876        H  0.63059043  0.94203014  0.37760499     0.12300
C877        C  0.69892829  0.86994879  0.41655849     0.16200
C878        C  0.72380939  0.89613897  0.42929793    -0.32800
C879        C  0.73946416  0.87695779  0.44019471     0.20600
C880        C  0.73101381  0.83343769  0.43847954     0.02800
C881        C  0.70530627  0.80669280  0.42569952    -0.22500
C882        C  0.68921808  0.82601808  0.41471936     0.12000
S883        S  0.67736694  0.88830536  0.40250409    -0.06200
C884        C  0.65306218  0.83596879  0.39388722    -0.09700
C885        C  0.66268910  0.80602467  0.40157407    -0.26300
S886        S  0.75508806  0.81771049  0.45291402    -0.03500
C887        C  0.77638626  0.87034510  0.46125149    -0.16900
C888        C  0.76481604  0.89797503  0.45319583    -0.14900
H889        H  0.73074332  0.93027101  0.43064386     0.20400
H890        H  0.69828438  0.77254726  0.42437716     0.16500
H891        H  0.65009391  0.77158041  0.39806668     0.19000
H892        H  0.77516768  0.93214722  0.45649152     0.12300
C893        C  0.55533958  0.51276093  0.36058370     0.16200
C894        C  0.56306677  0.55536206  0.36501406    -0.32800
C895        C  0.55707019  0.58122424  0.35350294     0.20600
C896        C  0.54424262  0.56518519  0.33832784     0.02800
C897        C  0.53638554  0.52283007  0.33396080    -0.22500
C898        C  0.54194842  0.49700298  0.34542240     0.12000
S899        S  0.56174954  0.47635976  0.37249359    -0.06200
C900        C  0.54575200  0.43961778  0.35685854    -0.09700
C901        C  0.53597844  0.45507372  0.34325696    -0.26300
S902        S  0.53749221  0.60014030  0.32607075    -0.03500
C903        C  0.55128424  0.63705123  0.34149705    -0.16900
C904        C  0.56147318  0.62294020  0.35541284    -0.14900
H905        H  0.57317321  0.56769610  0.37686990     0.20400
H906        H  0.52608146  0.51040586  0.32211899     0.16500
H907        H  0.52631630  0.43714424  0.33219783     0.19000
H908        H  0.56994146  0.64127530  0.36637998     0.12300
C909        C  0.40720349  0.65962503  0.26476134     0.16200
C910        C  0.43638001  0.65427547  0.27465773    -0.32800
C911        C  0.45505988  0.68375097  0.28730091     0.20600
C912        C  0.44585703  0.71784313  0.29001974     0.02800
C913        C  0.41691021  0.72381688  0.27983651    -0.22500
C914        C  0.39754624  0.69360171  0.26713479     0.12000
S915        S  0.37988603  0.62505454  0.24943620    -0.06200
C916        C  0.35456830  0.65617685  0.24575791    -0.09700
C917        C  0.36733772  0.69205421  0.25608602    -0.26300
S918        S  0.47098663  0.74817116  0.30678804    -0.03500
C919        C  0.49321078  0.71373724  0.31007631    -0.16900
C920        C  0.48205331  0.68147765  0.29854099    -0.14900
H921        H  0.44341400  0.62738461  0.27279093     0.20400
H922        H  0.40909712  0.75006549  0.28191127     0.16500
H923        H  0.35475083  0.71510287  0.25569342     0.19000
H924        H  0.49215386  0.65642099  0.29857849     0.12300
C925        C  0.79870237  0.04777717  0.12970128     0.16200
C926        C  0.82993605  0.05928928  0.11740110    -0.32800
C927        C  0.82297665  0.02534039  0.10662429     0.20600
C928        C  0.78667318  0.98229352  0.10817419     0.02800
C929        C  0.75615013  0.97087968  0.12040910    -0.22500
C930        C  0.76297525  0.00440582  0.13102524     0.12000
S931        S  0.79891649  0.08342943  0.14381809    -0.06200
C932        C  0.75026127  0.03896895  0.15128416    -0.09700
C933        C  0.73560102  0.99914944  0.14329664    -0.26300
S934        S  0.78228729  0.94577792  0.09406743    -0.03500
C935        C  0.83022744  0.98834893  0.08572131    -0.16900
C936        C  0.84856121  0.02906692  0.09365420    -0.14900
H937        H  0.85791058  0.09308472  0.11618164     0.20400
H938        H  0.72778115  0.93722987  0.12149487     0.16500
H939        H  0.70562807  0.96779600  0.14609983     0.19000
H940        H  0.87835237  0.05955329  0.09004641     0.12300
C941        C  0.48950362  0.82421498  0.17884818     0.16200
C942        C  0.53228246  0.85199965  0.17272342    -0.32800
C943        C  0.55841794  0.89417286  0.17960651     0.20600
C944        C  0.54315084  0.90807525  0.19222640     0.02800
C945        C  0.50053359  0.87967233  0.19864153    -0.22500
C946        C  0.47391505  0.83754216  0.19155096     0.12000
S947        S  0.45188378  0.77341528  0.17124455    -0.06200
C948        C  0.41410978  0.76961341  0.18523456    -0.09700
C949        C  0.43060612  0.80601247  0.19539585    -0.26300
S950        S  0.57958797  0.96188276  0.19817467    -0.03500
C951        C  0.61547343  0.96539685  0.18343517    -0.16900
C952        C  0.59975955  0.92657705  0.17462424    -0.14900
H953        H  0.54419801  0.84170510  0.16269744     0.20400
H954        H  0.48818384  0.89043449  0.20840345     0.16500
H955        H  0.41169412  0.80965418  0.20482573     0.19000
H956        H  0.61724273  0.92253734  0.16477927     0.12300
C957        C  0.64323979  0.15879653  0.24829495     0.16200
C958        C  0.61531033  0.14723854  0.26154346    -0.32800
C959        C  0.62388145  0.18162786  0.27228057     0.20600
C960        C  0.65811393  0.22533523  0.26975386     0.02800
C961        C  0.68500130  0.23691182  0.25646250    -0.22500
C962        C  0.67696774  0.20276247  0.24596406     0.12000
S963        S  0.64229944  0.12215838  0.23448904    -0.06200
C964        C  0.68825553  0.16693877  0.22588129    -0.09700
C965        C  0.70225183  0.20765356  0.23314523    -0.26300
S966        S  0.66537286  0.26209370  0.28420645    -0.03500
C967        C  0.62177059  0.21842501  0.29398560    -0.16900
C968        C  0.60238852  0.17747241  0.28625460    -0.14900
H969        H  0.58918839  0.11294878  0.26364457     0.20400
H970        H  0.71210262  0.27093511  0.25463591     0.16500
H971        H  0.73105211  0.23922749  0.22967245     0.19000
H972        H  0.57471079  0.14647375  0.29070124     0.12300
C973        C  0.89819447  0.30252427  0.20337140     0.16200
C974        C  0.93482989  0.34273664  0.20834253    -0.32800
C975        C  0.97198854  0.36284532  0.19846094     0.20600
C976        C  0.97298660  0.34372940  0.18425458     0.02800
C977        C  0.93622462  0.30304737  0.17929613    -0.22500
C978        C  0.89870307  0.28289657  0.18920892     0.12000
S979        S  0.84988504  0.27439251  0.21362918    -0.06200
C980        C  0.82954011  0.23526343  0.19877303    -0.09700
C981        C  0.85916284  0.24376749  0.18651006    -0.26300
S982        S  0.02134716  0.37448180  0.17390065    -0.03500
C983        C  0.03991237  0.41337992  0.18889641    -0.16900
C984        C  0.01014176  0.40261435  0.20119689    -0.14900
H985        H  0.93417143  0.35800672  0.21937622     0.20400
H986        H  0.93667823  0.28808000  0.16817473     0.16500
H987        H  0.85196542  0.22300403  0.17616826     0.19000
H988        H  0.01584983  0.42307537  0.21153774     0.12300
C989        C  0.88344765  0.28949113  0.36434735     0.16200
C990        C  0.84054945  0.27267940  0.37084536    -0.32800
C991        C  0.81249453  0.28657374  0.36393555     0.20600
C992        C  0.82715606  0.31667047  0.35146719     0.02800
C993        C  0.87008198  0.33428923  0.34534793    -0.22500
C994        C  0.89742552  0.31959748  0.35191149     0.12000
S995        S  0.92149470  0.27384892  0.36967429    -0.06200
C996        C  0.95584416  0.30794312  0.35480558    -0.09700
C997        C  0.93867035  0.33045962  0.34652418    -0.26300
S998        S  0.78819042  0.32739307  0.34383529    -0.03500
C999        C  0.75084374  0.29050312  0.35738684    -0.16900
C1000       C  0.76847229  0.27167192  0.36754493    -0.14900
H1001       H  0.82896623  0.24857354  0.38038789     0.20400
H1002       H  0.88108582  0.35712911  0.33542071     0.16500
H1003       H  0.95492068  0.35269082  0.33664426     0.19000
H1004       H  0.74984525  0.24755441  0.37670431     0.12300
C1005       C  0.10260521  0.42287499  0.29826124     0.16200
C1006       C  0.10814719  0.45439698  0.28681414    -0.32800
C1007       C  0.13250704  0.45710366  0.27336240     0.20600
C1008       C  0.15138160  0.43023874  0.27145260     0.02800
C1009       C  0.14577175  0.39847941  0.28296800    -0.22500
C1010       C  0.12075593  0.39531762  0.29641889     0.12000
S1011       S  0.07188030  0.41322798  0.31485006    -0.06200
C1012       C  0.08282362  0.37106764  0.31947231    -0.09700
C1013       C  0.10974628  0.36546676  0.30871322    -0.26300
S1014       S  0.18026175  0.43950337  0.25422383    -0.03500
C1015       C  0.16576666  0.47917177  0.24952661    -0.16900
C1016       C  0.14027839  0.48488705  0.26080195    -0.14900
H1017       H  0.09341521  0.47541769  0.28821927     0.20400
H1018       H  0.15980677  0.37690330  0.28142617     0.16500
H1019       H  0.11899906  0.33985154  0.30948180     0.19000
H1020       H  0.12835280  0.50844159  0.25990349     0.12300
C1021       C  0.00077306  0.09341377  0.43859026     0.16200
C1022       C  0.03067830  0.11264704  0.42618846    -0.32800
C1023       C  0.02558387  0.14209734  0.41638354     0.20600
C1024       C  0.99186694  0.15203538  0.41858802     0.02800
C1025       C  0.96119142  0.13219605  0.43107732    -0.22500
C1026       C  0.96660012  0.10259802  0.44110411     0.12000
S1027       S  0.00398103  0.05865128  0.45187548    -0.06200
C1028       C  0.95872047  0.05572965  0.46130532    -0.09700
C1029       C  0.94170537  0.08048129  0.45423542    -0.26300
S1030       S  0.99313427  0.18996357  0.40517309    -0.03500
C1031       C  0.03966825  0.19203523  0.39682829    -0.16900
C1032       C  0.05274721  0.16462115  0.40406321    -0.14900
H1033       H  0.05741667  0.10546118  0.42439994     0.20400
H1034       H  0.93488420  0.13990087  0.43300417     0.16500
H1035       H  0.91366082  0.08291709  0.45861207     0.19000
H1036       H  0.08111683  0.16146951  0.40056662     0.12300
C1037       C  0.28883785  0.22346689  0.36464061     0.16200
C1038       C  0.24513299  0.20749299  0.36990418    -0.32800
C1039       C  0.22343984  0.23046325  0.36501251     0.20600
C1040       C  0.24386627  0.26743031  0.35513364     0.02800
C1041       C  0.28761585  0.28318361  0.34969415    -0.22500
C1042       C  0.30960646  0.26039877  0.35473779     0.12000
S1043       S  0.32142116  0.20156755  0.37003412    -0.06200
C1044       C  0.36385336  0.24258390  0.35885451    -0.09700
C1045       C  0.35267442  0.27133641  0.35126270    -0.26300
S1046       S  0.21166106  0.29113023  0.35106360    -0.03500
C1047       C  0.17063858  0.25098218  0.36297294    -0.16900
C1048       C  0.18169570  0.22091547  0.36949312    -0.14900
H1049       H  0.22902101  0.17890268  0.37775409     0.20400
H1050       H  0.30406137  0.31233932  0.34211414     0.16500
H1051       H  0.37520339  0.29941146  0.34393341     0.19000
H1052       H  0.16046183  0.19368744  0.37736434     0.12300
C1053       C  0.63768300  0.92207693  0.03350245     0.16200
C1054       C  0.59632694  0.90908918  0.04034089    -0.32800
C1055       C  0.56500548  0.91356302  0.03136680     0.20600
C1056       C  0.57428049  0.93105358  0.01626660     0.02800
C1057       C  0.61626393  0.94454756  0.00937068    -0.22500
C1058       C  0.64769157  0.93928373  0.01834618     0.12000
S1059       S  0.67829734  0.91612868  0.04243012    -0.06200
C1060       C  0.70973958  0.93634010  0.02556905    -0.09700
C1061       C  0.68954188  0.94795831  0.01371416    -0.26300
S1062       S  0.53013739  0.93246656  0.00750854    -0.03500
C1063       C  0.49922780  0.90853198  0.02437219    -0.16900
C1064       C  0.52254990  0.90068553  0.03599942    -0.14900
H1065       H  0.58847303  0.89503088  0.05209511     0.20400
H1066       H  0.62373142  0.95762871  0.99748989     0.16500
H1067       H  0.70395304  0.96052216  0.00222709     0.19000
H1068       H  0.50895406  0.88573829  0.04735489     0.12300
C1069       C  0.35312490  0.78075311  0.07884495     0.16200
C1070       C  0.35317603  0.75522598  0.09160562    -0.32800
C1071       C  0.31941347  0.74220533  0.10280203     0.20600
C1072       C  0.28651499  0.75364114  0.10137242     0.02800
C1073       C  0.28646974  0.77947875  0.08849836    -0.22500
C1074       C  0.32075591  0.79291300  0.07724033     0.12000
S1075       S  0.39255652  0.80057710  0.06454552    -0.06200
C1076       C  0.36616029  0.82655123  0.05612124    -0.09700
C1077       C  0.32790100  0.81922529  0.06404506    -0.26300
S1078       S  0.24830884  0.73358946  0.11639619    -0.03500
C1079       C  0.27750806  0.71004277  0.12459833    -0.16900
C1080       C  0.31461274  0.71758919  0.11603145    -0.14900
H1081       H  0.37880281  0.74620043  0.09282633     0.20400
H1082       H  0.26111545  0.78888120  0.08736981     0.16500
H1083       H  0.30746749  0.83343432  0.06066258     0.19000
H1084       H  0.33688806  0.70537619  0.11924339     0.12300
C1085       C  0.47268291  0.07608936  0.93443389     0.16200
C1086       C  0.47315586  0.05361629  0.94816899    -0.32800
C1087       C  0.43229665  0.01788123  0.95351181     0.20600
C1088       C  0.39299697  0.00462120  0.94529315     0.02800
C1089       C  0.39263656  0.02660178  0.93145744    -0.22500
C1090       C  0.43319572  0.06305322  0.92638214     0.12000
S1091       S  0.51831949  0.12125152  0.92635827    -0.06200
C1092       C  0.48369671  0.12310136  0.91216409    -0.09700
C1093       C  0.43920349  0.09012151  0.91366387    -0.26300
S1094       S  0.34636992  0.96366612  0.95432006    -0.03500
C1095       C  0.37973736  0.96492277  0.96959980    -0.16900
C1096       C  0.42499448  0.99463683  0.96741518    -0.14900
H1097       H  0.50378452  0.06443377  0.95466892     0.20400
H1098       H  0.36176254  0.01677910  0.92524876     0.16500
H1099       H  0.41283075  0.08576339  0.90573435     0.19000
H1100       H  0.45062240  0.00131071  0.97603345     0.12300
C1101       C  0.13384617  0.91809287  0.02520045     0.16200
C1102       C  0.17165489  0.91554800  0.02971436    -0.32800
C1103       C  0.19701903  0.91074580  0.01775073     0.20600
C1104       C  0.18452724  0.90781857  0.00210080     0.02800
C1105       C  0.14682167  0.91005225  0.99763739    -0.22500
C1106       C  0.12229259  0.91594208  0.00947909     0.12000
S1107       S  0.09900762  0.92498976  0.03769330    -0.06200
C1108       C  0.06981767  0.92649605  0.02145184    -0.09700
C1109       C  0.08593482  0.92106733  0.00725149    -0.26300
S1110       S  0.22029918  0.90487796  0.98917627    -0.03500
C1111       C  0.25336110  0.90819883  0.00486004    -0.16900
C1112       C  0.23661037  0.91060655  0.01945342    -0.14900
H1113       H  0.18138385  0.91818446  0.04194091     0.20400
H1114       H  0.13773266  0.90857917  0.98537349     0.16500
H1115       H  0.07143830  0.92037590  0.99588906     0.19000
H1116       H  0.25359953  0.91458317  0.03053630     0.12300
C1117       C  0.33783885  0.55279280  0.60608714     0.16200
C1118       C  0.36757458  0.56444581  0.59356617    -0.32800
C1119       C  0.36084084  0.53074894  0.58302133     0.20600
C1120       C  0.32563218  0.48717582  0.58459046     0.02800
C1121       C  0.29500067  0.47554734  0.59708627    -0.22500
C1122       C  0.30219500  0.50946585  0.60789538     0.12000
S1123       S  0.34300792  0.58901120  0.62044647    -0.06200
C1124       C  0.29666444  0.54573054  0.62933675    -0.09700
C1125       C  0.27788154  0.50520896  0.62128093    -0.26300
S1126       S  0.32568937  0.45115419  0.57069564    -0.03500
C1127       C  0.37389290  0.49559177  0.56300839    -0.16900
C1128       C  0.38815059  0.53578771  0.57073575    -0.14900
H1129       H  0.39562020  0.59823256  0.59233294     0.20400
H1130       H  0.26762629  0.44152203  0.59854252     0.16500
H1131       H  0.24877831  0.47442935  0.62512003     0.19000
H1132       H  0.41792928  0.56717174  0.56779890     0.12300
C1133       C  0.57773591  0.63856385  0.53577369     0.16200
C1134       C  0.61291420  0.68076039  0.53985560    -0.32800
C1135       C  0.65027930  0.70016918  0.53007589     0.20600
C1136       C  0.65276673  0.67897053  0.51661979     0.02800
C1137       C  0.61717633  0.63625323  0.51246846    -0.22500
C1138       C  0.57956736  0.61635959  0.52247252     0.12000
S1139       S  0.53022004  0.61037750  0.54645965    -0.06200
C1140       C  0.51171429  0.56722738  0.53310269    -0.09700
C1141       C  0.54148081  0.57483739  0.52088269    -0.26300
S1142       S  0.70203050  0.70936690  0.50651377    -0.03500
C1143       C  0.71899090  0.75035257  0.52080610    -0.16900
C1144       C  0.68775216  0.74067947  0.53251474    -0.14900
H1145       H  0.61133214  0.69770432  0.55033106     0.20400
H1146       H  0.61885370  0.61925137  0.50203494     0.16500
H1147       H  0.53553984  0.55159126  0.51140904     0.19000
H1148       H  0.69223886  0.76217299  0.54243941     0.12300
C1149       C  0.14822775  0.19125102  0.52802209     0.16200
C1150       C  0.18216878  0.23504271  0.53180462    -0.32800
C1151       C  0.22563065  0.24906163  0.52636416     0.20600
C1152       C  0.23455223  0.22036062  0.51774943     0.02800
C1153       C  0.20082623  0.17709692  0.51388136    -0.22500
C1154       C  0.15761623  0.16345122  0.51908432     0.12000
S1155       S  0.09337407  0.16689711  0.53363010    -0.06200
C1156       C  0.08331482  0.11930113  0.52355665    -0.09700
C1157       C  0.12066258  0.12260213  0.51633560    -0.26300
S1158       S  0.28826625  0.24295040  0.51175180    -0.03500
C1159       C  0.29939200  0.29257723  0.52045535    -0.16900
C1160       C  0.26307511  0.29089518  0.52805512    -0.14900
H1161       H  0.17497376  0.25721309  0.53856511     0.20400
H1162       H  0.20791521  0.15511724  0.50694258     0.16500
H1163       H  0.12101213  0.09600349  0.50970806     0.19000
H1164       H  0.26348910  0.31909817  0.53377698     0.12300
C1165       C  0.47195743  0.36946113  0.46481859     0.16200
C1166       C  0.49725641  0.37970222  0.45095439    -0.32800
C1167       C  0.49002128  0.34375342  0.44123105     0.20600
C1168       C  0.45929905  0.29971995  0.44518831     0.02800
C1169       C  0.43461706  0.28952320  0.45905974    -0.22500
C1170       C  0.44157052  0.32529364  0.46864976     0.12000
S1171       S  0.47307498  0.40782450  0.47788985    -0.06200
C1172       C  0.43183707  0.36353655  0.48840214    -0.09700
C1173       C  0.41890282  0.32173615  0.48211279    -0.26300
S1174       S  0.45369300  0.26091111  0.43169216    -0.03500
C1175       C  0.49309279  0.30435795  0.42045078    -0.16900
C1176       C  0.50994000  0.34659570  0.42703021    -0.14900
H1177       H  0.52075479  0.41408661  0.44772428     0.20400
H1178       H  0.41027177  0.25520294  0.46208822     0.16500
H1179       H  0.39291348  0.29010560  0.48686184     0.19000
H1180       H  0.53468308  0.37767583  0.42157581     0.12300
C1181       C  0.66340025  0.47641771  0.75035304     0.16200
C1182       C  0.63071476  0.45232891  0.76192934    -0.32800
C1183       C  0.64119239  0.43044314  0.77381791     0.20600
C1184       C  0.68241946  0.43296970  0.77412570     0.02800
C1185       C  0.71484421  0.45706666  0.76271624    -0.22500
C1186       C  0.70432910  0.47840486  0.75087010     0.12000
S1187       S  0.65772495  0.50429747  0.73452342    -0.06200
C1188       C  0.71091932  0.51810302  0.72861594    -0.09700
C1189       C  0.73147162  0.50211194  0.73858622    -0.26300
S1190       S  0.68917645  0.40393954  0.78903481    -0.03500
C1191       C  0.63568597  0.38740531  0.79516400    -0.16900
C1192       C  0.61404050  0.40426415  0.78597153    -0.14900
H1193       H  0.59848702  0.45025861  0.76157157     0.20400
H1194       H  0.74685573  0.45861552  0.76294386     0.16500
H1195       H  0.76460384  0.50699250  0.73683073     0.19000
H1196       H  0.58028670  0.39736213  0.78795300     0.12300
C1197       C  0.90989812  0.59122580  0.68325456     0.16200
C1198       C  0.95319137  0.60822343  0.67703591    -0.32800
C1199       C  0.98065208  0.59354770  0.68393548     0.20600
C1200       C  0.96512849  0.56299720  0.69626684     0.02800
C1201       C  0.92200210  0.54554568  0.70221041    -0.22500
C1202       C  0.89508897  0.56059974  0.69554170     0.12000
S1203       S  0.87200265  0.60671930  0.67759009    -0.06200
C1204       C  0.83669921  0.57212819  0.69219005    -0.09700
C1205       C  0.85336217  0.54934599  0.70058903    -0.26300
S1206       S  0.00275826  0.55003009  0.70357361    -0.03500
C1207       C  0.04055914  0.58569983  0.68982649    -0.16900
C1208       C  0.02430307  0.60676283  0.68009540    -0.14900
H1209       H  0.96523974  0.63249204  0.66754360     0.20400
H1210       H  0.91028792  0.52201521  0.71193944     0.16500
H1211       H  0.83635667  0.52661001  0.71028036     0.19000
H1212       H  0.04328554  0.63042443  0.67086614     0.12300
C1213       C  0.47806672  0.59340697  0.69652649     0.16200
C1214       C  0.51103030  0.58198366  0.69981756    -0.32800
C1215       C  0.55033815  0.60264814  0.69070197     0.20600
C1216       C  0.55624857  0.63353684  0.67910107     0.02800
C1217       C  0.52386367  0.64513067  0.67597293    -0.22500
C1218       C  0.48472189  0.62418871  0.68481117     0.12000
S1219       S  0.42694301  0.57113597  0.70547765    -0.06200
C1220       C  0.41478803  0.60335952  0.69304407    -0.09700
C1221       C  0.44891204  0.63004473  0.68278420    -0.26300
S1222       S  0.60408203  0.65370494  0.66869523    -0.03500
C1223       C  0.61703592  0.61998061  0.67979014    -0.16900
C1224       C  0.58571892  0.59485174  0.69127526    -0.14900
H1225       H  0.50585901  0.55748759  0.70878502     0.20400
H1226       H  0.52855243  0.66876963  0.66672225     0.16500
H1227       H  0.44741799  0.65222522  0.67407249     0.19000
H1228       H  0.58789866  0.57124662  0.69911538     0.12300
C1229       C  0.74701073  0.70338687  0.61855657     0.16200
C1230       C  0.74842677  0.73037073  0.60611462    -0.32800
C1231       C  0.78813148  0.75335704  0.59768308     0.20600
C1232       C  0.82484950  0.74891845  0.60109036     0.02800
C1233       C  0.82326159  0.72110648  0.61357702    -0.22500
C1234       C  0.78346360  0.69885569  0.62243075     0.12000
S1235       S  0.70277882  0.67689143  0.63075386    -0.06200
C1236       C  0.73333250  0.65998030  0.64184703    -0.09700
C1237       C  0.77567178  0.67335165  0.63589825    -0.26300
S1238       S  0.87015721  0.78132191  0.58932638    -0.03500
C1239       C  0.83897059  0.80123874  0.58012563    -0.16900
C1240       C  0.79593114  0.78301997  0.58581758    -0.14900
H1241       H  0.72011101  0.73450905  0.60345521     0.20400
H1242       H  0.85205487  0.71812841  0.61655249     0.16500
H1243       H  0.79991504  0.66677318  0.64147139     0.19000
H1244       H  0.77143229  0.79127095  0.58156385     0.12300
C1245       C  0.23226769  0.96682611  0.86507479     0.16200
C1246       C  0.26702933  0.00963355  0.86861531    -0.32800
C1247       C  0.30490456  0.02754898  0.85913526     0.20600
C1248       C  0.30835594  0.00441362  0.84643522     0.02800
C1249       C  0.27283232  0.96120981  0.84268633    -0.22500
C1250       C  0.23464899  0.94275623  0.85244263     0.12000
S1251       S  0.18523871  0.93969905  0.87599684    -0.06200
C1252       C  0.16748348  0.89440058  0.86367326    -0.09700
C1253       C  0.19699153  0.90065897  0.85149709    -0.26300
S1254       S  0.35893033  0.03296263  0.83691470    -0.03500
C1255       C  0.37482359  0.07585307  0.85039014    -0.16900
C1256       C  0.34233424  0.06805128  0.86139773    -0.14900
H1257       H  0.26500834  0.02793262  0.87861284     0.20400
H1258       H  0.27520992  0.94258240  0.83287799     0.16500
H1259       H  0.19160733  0.87577765  0.84271319     0.19000
H1260       H  0.34603040  0.09071586  0.87083198     0.12300
C1261       C  0.00954627  0.88274722  0.94200675     0.16200
C1262       C  0.04292246  0.88916650  0.93132407    -0.32800
C1263       C  0.03199680  0.85681571  0.91963837     0.20600
C1264       C  0.98976902  0.81932797  0.91856136     0.02800
C1265       C  0.95616145  0.81270085  0.92940559    -0.22500
C1266       C  0.96707553  0.84540763  0.94116506     0.12000
S1267       S  0.01677268  0.91889897  0.95678356    -0.06200
C1268       C  0.96192342  0.88361112  0.96222483    -0.09700
C1269       C  0.93941077  0.84563776  0.95282615    -0.26300
S1270       S  0.98386531  0.78483444  0.90304041    -0.03500
C1271       C  0.03875632  0.82187108  0.89798976    -0.16900
C1272       C  0.05996225  0.85834688  0.90803026    -0.14900
H1273       H  0.07601905  0.91844906  0.93200939     0.20400
H1274       H  0.92298894  0.78361693  0.92864213     0.16500
H1275       H  0.90489754  0.81971867  0.95443824     0.19000
H1276       H  0.09421860  0.88530291  0.90677553     0.12300
C1277       C  0.89031820  0.54593123  0.85239698     0.16200
C1278       C  0.85810029  0.50152387  0.84942752    -0.32800
C1279       C  0.81514513  0.48643806  0.85508259     0.20600
C1280       C  0.80450966  0.51387718  0.86368321     0.02800
C1281       C  0.83716854  0.55874913  0.86678543    -0.22500
C1282       C  0.88043463  0.57430182  0.86079080     0.12000
S1283       S  0.94289372  0.57020896  0.84525053    -0.06200
C1284       C  0.95249345  0.62006237  0.85326447    -0.09700
C1285       C  0.91652974  0.61738152  0.86147255    -0.26300
S1286       S  0.74956437  0.48808074  0.86928161    -0.03500
C1287       C  0.74146041  0.44053638  0.85963398    -0.16900
C1288       C  0.77938269  0.44475204  0.85267105    -0.14900
H1289       H  0.86594970  0.47989989  0.84260437     0.20400
H1290       H  0.82900488  0.58069385  0.87323720     0.16500
H1291       H  0.91607607  0.64554276  0.86686277     0.19000
H1292       H  0.78078886  0.41854896  0.84615026     0.12300
C1293       C  0.15719972  0.69458153  0.77316828     0.16200
C1294       C  0.15645402  0.72119650  0.78561774    -0.32800
C1295       C  0.12290512  0.70001102  0.79714275     0.20600
C1296       C  0.09223622  0.65448227  0.79617434     0.02800
C1297       C  0.09303698  0.62820199  0.78388522    -0.22500
C1298       C  0.12588750  0.64923269  0.77241314     0.12000
S1299       S  0.19447651  0.71294474  0.75787913    -0.06200
C1300       C  0.16692556  0.65893456  0.75047522    -0.09700
C1301       C  0.13111598  0.62875973  0.75950789    -0.26300
S1302       S  0.05367511  0.63418579  0.81065866    -0.03500
C1303       C  0.07796149  0.68751676  0.81841178    -0.16900
C1304       C  0.11497250  0.71948210  0.81005132    -0.14900
H1305       H  0.18060279  0.75669844  0.78621213     0.20400
H1306       H  0.06864941  0.59274967  0.78321747     0.16500
H1307       H  0.11012546  0.59344664  0.75686163     0.19000
H1308       H  0.13417952  0.75472265  0.81301010     0.12300
C1309       C  0.32961289  0.14978350  0.25677665     0.16200
C1310       C  0.35249173  0.18262172  0.26832508    -0.32800
C1311       C  0.37831418  0.17479504  0.27927470     0.20600
C1312       C  0.38038897  0.13568303  0.27883881     0.02800
C1313       C  0.35735814  0.10292958  0.26747966    -0.22500
C1314       C  0.33242637  0.11111311  0.25644884     0.12000
S1315       S  0.29852163  0.15342151  0.24175970    -0.06200
C1316       C  0.29036678  0.10280664  0.23492669    -0.09700
C1317       C  0.31000619  0.08415308  0.24406833    -0.26300
S1318       S  0.41394858  0.13227120  0.29262929    -0.03500
C1319       C  0.42632486  0.18453366  0.29912335    -0.16900
C1320       C  0.40469616  0.20316674  0.29101637    -0.14900
H1321       H  0.35106227  0.21325229  0.26854359     0.20400
H1322       H  0.35963535  0.07276058  0.26703217     0.16500
H1323       H  0.30895905  0.05285613  0.24156785     0.19000
H1324       H  0.40854863  0.23573739  0.29341453     0.12300
C1325       C  0.22284615  0.84524275  0.18122793     0.16200
C1326       C  0.21142757  0.87819867  0.17795518    -0.32800
C1327       C  0.23519723  0.91935166  0.18587591     0.20600
C1328       C  0.26971165  0.92750438  0.19610046     0.02800
C1329       C  0.28153438  0.89505226  0.19913981    -0.22500
C1330       C  0.25682237  0.85363961  0.19172267     0.12000
S1331       S  0.19615411  0.79192086  0.17389931    -0.06200
C1332       C  0.23055378  0.78090335  0.18545153    -0.09700
C1333       C  0.26132302  0.81700716  0.19422209    -0.26300
S1334       S  0.29236990  0.97728206  0.20558048    -0.03500
C1335       C  0.25402482  0.98720069  0.19621819    -0.16900
C1336       C  0.22625270  0.95401336  0.18573886    -0.14900
H1337       H  0.18409399  0.87140216  0.17011836     0.20400
H1338       H  0.30760703  0.90115040  0.20749480     0.16500
H1339       H  0.28548163  0.81640234  0.20216475     0.19000
H1340       H  0.19934573  0.95390251  0.17921438     0.12300
C1341       C  0.06988345  0.05175652  0.13427946     0.16200
C1342       C  0.04190950  0.05073823  0.12227292    -0.32800
C1343       C  0.03333923  0.02125399  0.10982493     0.20600
C1344       C  0.05081464  0.99288257  0.10946808     0.02800
C1345       C  0.07885770  0.99366639  0.12165651    -0.22500
C1346       C  0.08840029  0.02424654  0.13404486     0.12000
S1347       S  0.08628207  0.08802158  0.14952733    -0.06200
C1348       C  0.11966204  0.06720707  0.15580118    -0.09700
C1349       C  0.11709949  0.03277380  0.14655729    -0.26300
S1350       S  0.03606620  0.95991611  0.09299983    -0.03500
C1351       C  0.00729477  0.98585739  0.08648742    -0.16900
C1352       C  0.00867421  0.01753650  0.09675998    -0.14900
H1353       H  0.02835384  0.07300364  0.12241693     0.20400
H1354       H  0.09335641  0.97225412  0.12130484     0.16500
H1355       H  0.13651353  0.01650485  0.14844576     0.19000
H1356       H  0.99244881  0.03699123  0.09477184     0.12300
C1357       C  0.21647677  0.27549075  0.19531570     0.16200
C1358       C  0.23344623  0.31920965  0.20123109    -0.32800
C1359       C  0.22016142  0.34704783  0.19367231     0.20600
C1360       C  0.19153448  0.33180941  0.18085653     0.02800
C1361       C  0.17457292  0.28854154  0.17508864    -0.22500
C1362       C  0.18758239  0.26099764  0.18260161     0.12000
S1363       S  0.22852790  0.23592179  0.20226030    -0.06200
C1364       C  0.19398552  0.20004348  0.18783264    -0.09700
C1365       C  0.17451697  0.21819441  0.17837555    -0.26300
S1366       S  0.17916463  0.36945141  0.17304175    -0.03500
C1367       C  0.21256133  0.40685558  0.18720221    -0.16900
C1368       C  0.23245096  0.39056355  0.19744449    -0.14900
H1369       H  0.25598772  0.33099268  0.21117636     0.20400
H1370       H  0.15218174  0.27682509  0.16508829     0.16500
H1371       H  0.15225656  0.20115191  0.16862106     0.19000
H1372       H  0.25439488  0.40932580  0.20705763     0.12300
C1373       C  0.24539844  0.94264763  0.35728368     0.16200
C1374       C  0.27473956  0.98252100  0.36514609    -0.32800
C1375       C  0.31595353  0.01123885  0.35793894     0.20600
C1376       C  0.32726052  0.00054633  0.34359730     0.02800
C1377       C  0.29803216  0.96101592  0.33575346    -0.22500
C1378       C  0.25706112  0.93248463  0.34292677     0.12000
S1379       S  0.19385577  0.90286632  0.36393280    -0.06200
C1380       C  0.18841321  0.87248155  0.34717184    -0.09700
C1381       C  0.22463260  0.89249336  0.33708151    -0.26300
S1382       S  0.37826380  0.03913371  0.33665449    -0.03500
C1383       C  0.38473735  0.07063388  0.35318177    -0.16900
C1384       C  0.34899872  0.05174143  0.36353923    -0.14900
H1385       H  0.26587255  0.99076560  0.37634594     0.20400
H1386       H  0.30687518  0.95281813  0.32453313     0.16500
H1387       H  0.22722778  0.87845988  0.32602112     0.19000
H1388       H  0.34715866  0.06689570  0.37443546     0.12300
C1389       C  0.10862636  0.69481364  0.29111365     0.16200
C1390       C  0.09891312  0.66275724  0.27920493    -0.32800
C1391       C  0.13258122  0.67190288  0.26801068     0.20600
C1392       C  0.17361295  0.71119072  0.26872473     0.02800
C1393       C  0.18316099  0.74279123  0.28049539    -0.22500
C1394       C  0.14995036  0.73367731  0.29158414     0.12000
S1395       S  0.07349565  0.69103911  0.30610181    -0.06200
C1396       C  0.11543781  0.74225329  0.31292106    -0.09700
C1397       C  0.15396883  0.76068258  0.30388534    -0.26300
S1398       S  0.21036808  0.71710632  0.25443285    -0.03500
C1399       C  0.17070391  0.66583789  0.24715760    -0.16900
C1400       C  0.13065000  0.64540290  0.25554372    -0.14900
H1401       H  0.06681539  0.63215128  0.27872706     0.20400
H1402       H  0.21536885  0.77330236  0.28102428     0.16500
H1403       H  0.18395386  0.79239492  0.30624838     0.19000
H1404       H  0.10197854  0.61313149  0.25272158     0.12300
C1405       C  0.98029383  0.79374918  0.42332754     0.16200
C1406       C  0.95902535  0.79246431  0.43735330    -0.32800
C1407       C  0.96948032  0.83317824  0.44418200     0.20600
C1408       C  0.00075034  0.87388119  0.43763185     0.02800
C1409       C  0.02248320  0.87524214  0.42343623    -0.22500
C1410       C  0.01112807  0.83396286  0.41632047     0.12000
S1411       S  0.96826438  0.74729537  0.41301742    -0.06200
C1412       C  0.00426771  0.78151341  0.39863011    -0.09700
C1413       C  0.02556051  0.82713748  0.40198038    -0.26300
S1414       S  0.00789402  0.91935583  0.44816625    -0.03500
C1415       C  0.96739434  0.88248602  0.46108624    -0.16900
C1416       C  0.95023673  0.83784232  0.45745615    -0.14900
H1417       H  0.93428609  0.76086602  0.44252028     0.20400
H1418       H  0.04624048  0.90685215  0.41803992     0.16500
H1419       H  0.04794274  0.85355490  0.39405987     0.19000
H1420       H  0.92493107  0.81001411  0.46424183     0.12300
C1421       C  0.84733526  0.59432838  0.36828544     0.16200
C1422       C  0.80469484  0.56119149  0.37299400    -0.32800
C1423       C  0.78320834  0.52231269  0.36396222     0.20600
C1424       C  0.80312171  0.51682702  0.35066737     0.02800
C1425       C  0.84602506  0.55032268  0.34587178    -0.22500
C1426       C  0.86789108  0.58926355  0.35508316     0.12000
S1427       S  0.87849357  0.64256672  0.37823669    -0.06200
C1428       C  0.92057926  0.65673295  0.36468518    -0.09700
C1429       C  0.91036225  0.62533590  0.35288005    -0.26300
S1430       S  0.77139278  0.46652437  0.34154736    -0.03500
C1431       C  0.73117152  0.45285170  0.35589994    -0.16900
C1432       C  0.74207572  0.48588195  0.36703764    -0.14900
H1433       H  0.78918630  0.56530301  0.38342251     0.20400
H1434       H  0.86182619  0.54592290  0.33558985     0.16500
H1435       H  0.93277249  0.62830400  0.34348450     0.19000
H1436       H  0.72129585  0.48322875  0.37696220     0.12300
C1437       C  0.14603444  0.18519877  0.01541800     0.16200
C1438       C  0.18520988  0.22159087  0.00920009    -0.32800
C1439       C  0.21389886  0.25522243  0.01971461     0.20600
C1440       C  0.20415437  0.25182892  0.03566132     0.02800
C1441       C  0.16550604  0.21553926  0.04181960    -0.22500
C1442       C  0.13646299  0.18281493  0.03134420     0.12000
S1443       S  0.10603540  0.14135155  0.00482417    -0.06200
C1444       C  0.07613624  0.12044255  0.02207374    -0.09700
C1445       C  0.09635952  0.14615636  0.03520162    -0.26300
S1446       S  0.24019878  0.29667484  0.04648905    -0.03500
C1447       C  0.26852247  0.32153557  0.02940535    -0.16900
C1448       C  0.25160511  0.29535366  0.01601831    -0.14900
H1449       H  0.19234689  0.22414364  0.99672504     0.20400
H1450       H  0.15767380  0.21365311  0.05422541     0.16500
H1451       H  0.08279410  0.13807423  0.04700330     0.19000
H1452       H  0.26416475  0.30626206  0.00421512     0.12300
C1453       C  0.28469478  0.47647231  0.07618668     0.16200
C1454       C  0.25589827  0.47679630  0.08767459    -0.32800
C1455       C  0.27450135  0.49768709  0.10201564     0.20600
C1456       C  0.32005060  0.51806711  0.10474361     0.02800
C1457       C  0.34897271  0.51717916  0.09327326    -0.22500
C1458       C  0.33017066  0.49574615  0.07890053     0.12000
S1459       S  0.26738828  0.45005699  0.05859195    -0.06200
C1460       C  0.32164248  0.46353539  0.05479189    -0.09700
C1461       C  0.35182752  0.48871646  0.06653284    -0.26300
S1462       S  0.33604999  0.54433348  0.12258595    -0.03500
C1463       C  0.28071287  0.52732451  0.12638328    -0.16900
C1464       C  0.25170591  0.50203914  0.11446602    -0.14900
H1465       H  0.22032532  0.46105543  0.08555312     0.20400
H1466       H  0.38445669  0.53242050  0.09546841     0.16500
H1467       H  0.38672347  0.49810827  0.06660224     0.19000
H1468       H  0.21606299  0.48940049  0.11457192     0.12300
C1469       C  0.45378074  0.33165349  0.93560630     0.16200
C1470       C  0.42735369  0.33824591  0.94669954    -0.32800
C1471       C  0.44934465  0.36774081  0.95930956     0.20600
C1472       C  0.49543995  0.38915614  0.96075446     0.02800
C1473       C  0.52160478  0.38250585  0.94979287    -0.22500
C1474       C  0.49981641  0.35371505  0.93719045     0.12000
S1475       S  0.43449046  0.29812270  0.91921576    -0.06200
C1476       C  0.48921812  0.31485433  0.91446979    -0.09700
C1477       C  0.52014116  0.34451221  0.92516050    -0.26300
S1478       S  0.51663168  0.42526317  0.97611390    -0.03500
C1479       C  0.46299537  0.41231167  0.98079908    -0.16900
C1480       C  0.43030090  0.38065203  0.97095571    -0.14900
H1481       H  0.39142953  0.32172523  0.94542395     0.20400
H1482       H  0.55764002  0.39982546  0.95087116     0.16500
H1483       H  0.55594437  0.35868604  0.92419282     0.19000
H1484       H  0.39503541  0.36944863  0.97179650     0.12300
C1485       C  0.63553190  0.69399960  0.02460775     0.16200
C1486       C  0.59060578  0.66113921  0.02734220    -0.32800
C1487       C  0.57431431  0.61939439  0.01985481     0.20600
C1488       C  0.60193941  0.61126719  0.01030815     0.02800
C1489       C  0.64632183  0.64364944  0.00769144    -0.22500
C1490       C  0.66224727  0.68500790  0.01491972     0.12000
S1491       S  0.66250253  0.74712177  0.03218132    -0.06200
C1492       C  0.70954073  0.75659075  0.02192668    -0.09700
C1493       C  0.70434569  0.72052883  0.01329720    -0.26300
S1494       S  0.57734033  0.56018997  0.00184008    -0.03500
C1495       C  0.52841149  0.54854707  0.01101555    -0.16900
C1496       C  0.53150330  0.58297759  0.02040052    -0.14900
H1497       H  0.56934749  0.66793561  0.03477639     0.20400
H1498       H  0.66747760  0.63703682  0.00011629     0.16500
H1499       H  0.73020076  0.72015109  0.00624933     0.19000
H1500       H  0.50407760  0.58178179  0.02691131     0.12300
C1501       C  0.02809994  0.50264329  0.58368340     0.16200
C1502       C  0.05051436  0.53415982  0.59563527    -0.32800
C1503       C  0.07547444  0.52488083  0.60649357     0.20600
C1504       C  0.07866663  0.48649465  0.60526308     0.02800
C1505       C  0.05688950  0.45549173  0.59328147    -0.22500
C1506       C  0.03128791  0.46425624  0.58271926     0.12000
S1507       S  0.99382156  0.50570205  0.56976265    -0.06200
C1508       C  0.98334043  0.45433216  0.56290039    -0.09700
C1509       C  0.00587282  0.43664483  0.57091543    -0.26300
S1510       S  0.10864873  0.47987002  0.61975234    -0.03500
C1511       C  0.11657809  0.52900491  0.62788337    -0.16900
C1512       C  0.09756023  0.54974932  0.61948240    -0.14900
H1513       H  0.04768504  0.56390649  0.59667149     0.20400
H1514       H  0.05879868  0.42516305  0.59248419     0.16500
H1515       H  0.00331470  0.40466475  0.56838464     0.19000
H1516       H  0.09893261  0.58064787  0.62287637     0.12300
C1517       C  0.87804775  0.17431010  0.52014911     0.16200
C1518       C  0.87188668  0.20990590  0.51530927    -0.32800
C1519       C  0.88342602  0.24512987  0.52600491     0.20600
C1520       C  0.89920485  0.24396173  0.54089771     0.02800
C1521       C  0.90488209  0.20845954  0.54573714    -0.22500
C1522       C  0.89457908  0.17414578  0.53498726     0.12000
S1523       S  0.86858836  0.12941855  0.50884749    -0.06200
C1524       C  0.88823582  0.11123764  0.52421341    -0.09700
C1525       C  0.90056177  0.13831973  0.53737421    -0.26300
S1526       S  0.91402219  0.29008725  0.55194626    -0.03500
C1527       C  0.90020826  0.31259958  0.53630472    -0.16900
C1528       C  0.88353169  0.28464962  0.52329531    -0.14900
H1529       H  0.85995478  0.21073821  0.50361305     0.20400
H1530       H  0.91822132  0.20834607  0.55725100     0.16500
H1531       H  0.91358118  0.13232223  0.54812102     0.19000
H1532       H  0.87433361  0.29361706  0.51227776     0.12300
C1533       C  0.91926546  0.69198109  0.52386219     0.16200
C1534       C  0.92877581  0.65803281  0.52802663    -0.32800
C1535       C  0.90947412  0.61870784  0.51885903     0.20600
C1536       C  0.88218804  0.61400943  0.50619920     0.02800
C1537       C  0.87261430  0.64751784  0.50213909    -0.22500
C1538       C  0.89171494  0.68642060  0.51120847     0.12000
S1539       S  0.93869516  0.74224447  0.53330142    -0.06200
C1540       C  0.90890687  0.75525012  0.52006885    -0.09700
C1541       C  0.88576922  0.72233979  0.50895552    -0.26300
S1542       S  0.86222314  0.56519199  0.49625959    -0.03500
C1543       C  0.89057188  0.54978169  0.50916488    -0.16900
C1544       C  0.91431978  0.58150493  0.52072295    -0.14900
H1545       H  0.95018653  0.66210559  0.53791592     0.20400
H1546       H  0.85114131  0.64342683  0.49225822     0.16500
H1547       H  0.86517431  0.72431287  0.49975511     0.19000
H1548       H  0.93405705  0.57773572  0.52982761     0.12300
C1549       C  0.77990536  0.36322964  0.45891006     0.16200
C1550       C  0.74920704  0.32810585  0.44918419    -0.32800
C1551       C  0.72843326  0.33905415  0.43704978     0.20600
C1552       C  0.73807675  0.38287260  0.43480540     0.02800
C1553       C  0.76892916  0.41762279  0.44426499    -0.22500
C1554       C  0.78932578  0.40677748  0.45628815     0.12000
S1555       S  0.80716409  0.35792096  0.47497963    -0.06200
C1556       C  0.83070592  0.41490722  0.47807068    -0.09700
C1557       C  0.81844520  0.43624677  0.46699863    -0.26300
S1558       S  0.70931069  0.39015811  0.42002644    -0.03500
C1559       C  0.68371400  0.33354545  0.41643067    -0.16900
C1560       C  0.69718909  0.31031634  0.42636020    -0.14900
H1561       H  0.74134996  0.29387162  0.45113619     0.20400
H1562       H  0.77619223  0.45175540  0.44249269     0.16500
H1563       H  0.82900692  0.47162239  0.46708327     0.19000
H1564       H  0.68476517  0.27459975  0.42581868     0.12300
C1565       C  0.54801592  0.56018138  0.87593612     0.16200
C1566       C  0.55397587  0.52435502  0.88008872    -0.32800
C1567       C  0.54890204  0.49401164  0.86832246     0.20600
C1568       C  0.53720257  0.49822540  0.85309049     0.02800
C1569       C  0.53095175  0.53426248  0.84890467    -0.22500
C1570       C  0.53713620  0.56551110  0.86069094     0.12000
S1571       S  0.55656712  0.60192627  0.88844851    -0.06200
C1572       C  0.54676867  0.62833034  0.87302514    -0.09700
C1573       C  0.53600465  0.60474392  0.85893708    -0.26300
S1574       S  0.53299580  0.45723541  0.84065000    -0.03500
C1575       C  0.54824765  0.43522459  0.85614636    -0.16900
C1576       C  0.55543715  0.45834955  0.87012133    -0.14900
H1577       H  0.56342859  0.52097443  0.89193715     0.20400
H1578       H  0.52273704  0.53833341  0.83695701     0.16500
H1579       H  0.53011098  0.61668804  0.84791572     0.19000
H1580       H  0.56493665  0.44948836  0.88110682     0.12300
C1581       C  0.71668699  0.86101203  0.94204424     0.16200
C1582       C  0.69023219  0.85876722  0.92907225    -0.32800
C1583       C  0.66429658  0.81679538  0.92171995     0.20600
C1584       C  0.66447919  0.77905812  0.92729000     0.02800
C1585       C  0.69065604  0.78129289  0.94011340    -0.22500
C1586       C  0.71684508  0.82297443  0.94721527     0.12000
S1587       S  0.75112711  0.90822868  0.95273041    -0.06200
C1588       C  0.76598442  0.87598487  0.96399804    -0.09700
C1589       C  0.74495088  0.83131501  0.95960708    -0.26300
S1590       S  0.63225471  0.73154940  0.91696259    -0.03500
C1591       C  0.61841422  0.76227890  0.90454259    -0.16900
C1592       C  0.63761992  0.80733511  0.90855317    -0.14900
H1593       H  0.69026530  0.88837950  0.92480776     0.20400
H1594       H  0.69105196  0.75177370  0.94426259     0.16500
H1595       H  0.74964928  0.80585962  0.96530894     0.19000
H1596       H  0.63327428  0.83185040  0.90202090     0.12300
C1597       C  0.42912699  0.68715628  0.79726483     0.16200
C1598       C  0.40664521  0.65630901  0.78509541    -0.32800
C1599       C  0.38194203  0.66645456  0.77435824     0.20600
C1600       C  0.37908427  0.70494672  0.77592530     0.02800
C1601       C  0.40066752  0.73503362  0.78815156    -0.22500
C1602       C  0.42600590  0.72551315  0.79856156     0.12000
S1603       S  0.46346431  0.68353730  0.81107737    -0.06200
C1604       C  0.47395039  0.73467231  0.81828980    -0.09700
C1605       C  0.45134343  0.75255207  0.81048371    -0.26300
S1606       S  0.34980480  0.71304637  0.76151884    -0.03500
C1607       C  0.34133074  0.66423604  0.75298047    -0.16900
C1608       C  0.35987363  0.64257579  0.76117731    -0.14900
H1609       H  0.40930895  0.62653070  0.78378857     0.20400
H1610       H  0.39893734  0.76540773  0.78922116     0.16500
H1611       H  0.45372385  0.78431816  0.81326410     0.19000
H1612       H  0.35817206  0.61171882  0.75751079     0.12300
C1613       C  0.55524124  0.00443058  0.86144076     0.16200
C1614       C  0.55536433  0.96645546  0.86742693    -0.32800
C1615       C  0.55657021  0.93641238  0.85657912     0.20600
C1616       C  0.55751004  0.94407173  0.84052259     0.02800
C1617       C  0.55707801  0.98171156  0.83455659    -0.22500
C1618       C  0.55573052  0.01150544  0.84536281     0.12000
S1619       S  0.55499351  0.04552752  0.87255753    -0.06200
C1620       C  0.55517314  0.07212208  0.85533739    -0.09700
C1621       C  0.55515094  0.04995133  0.84178214    -0.26300
S1622       S  0.55651769  0.90311811  0.82919328    -0.03500
C1623       C  0.55425698  0.87460056  0.84617873    -0.16900
C1624       C  0.55511337  0.89655942  0.85994182    -0.14900
H1625       H  0.55438964  0.96052511  0.87996680     0.20400
H1626       H  0.55734865  0.98729854  0.82200760     0.16500
H1627       H  0.55571079  0.06187691  0.82993865     0.19000
H1628       H  0.55199574  0.88289665  0.87165383     0.12300
C1629       C  0.91002613  0.28205996  0.69185428     0.16200
C1630       C  0.93797132  0.32318154  0.69945326    -0.32800
C1631       C  0.97998754  0.35207011  0.69262053     0.20600
C1632       C  0.99309030  0.34004683  0.67894256     0.02800
C1633       C  0.96524054  0.29956168  0.67136048    -0.22500
C1634       C  0.92360770  0.27106251  0.67807546     0.12000
S1635       S  0.85830312  0.24132576  0.69816732    -0.06200
C1636       C  0.85536378  0.20977311  0.68195454    -0.09700
C1637       C  0.89253802  0.23011402  0.67232344    -0.26300
S1638       S  0.04477234  0.37799990  0.67241032    -0.03500
C1639       C  0.04969020  0.41158741  0.68811850    -0.16900
C1640       C  0.01254422  0.39360215  0.69799033    -0.14900
H1641       H  0.92757464  0.33208429  0.71019654     0.20400
H1642       H  0.97574859  0.29052934  0.66066375     0.16500
H1643       H  0.89700878  0.21540003  0.66174082     0.19000
H1644       H  0.00957514  0.40982165  0.70842622     0.12300
C1645       C  0.83472070  0.04791688  0.60135972     0.16200
C1646       C  0.84129178  0.08206229  0.61173584    -0.32800
C1647       C  0.81233166  0.07073342  0.62455892     0.20600
C1648       C  0.77752537  0.02732656  0.62690922     0.02800
C1649       C  0.77046582  0.99286021  0.61629581    -0.22500
C1650       C  0.80025742  0.00415382  0.60347849     0.12000
S1651       S  0.86860236  0.05561533  0.58582089    -0.06200
C1652       C  0.83697598  0.99905229  0.58187077    -0.09700
C1653       C  0.80108927  0.97568679  0.59215722    -0.26300
S1654       S  0.74766426  0.02111684  0.64382348    -0.03500
C1655       C  0.78325139  0.07742457  0.64775762    -0.16900
C1656       C  0.81562602  0.09933037  0.63629994    -0.14900
H1657       H  0.86873170  0.11599917  0.61010012     0.20400
H1658       H  0.74375518  0.95871029  0.61816220     0.16500
H1659       H  0.77776566  0.93996896  0.59163030     0.19000
H1660       H  0.84130356  0.13439345  0.63672729     0.12300
C1661       C  0.52979812  0.91594058  0.70681801     0.16200
C1662       C  0.48613276  0.88353569  0.71059687    -0.32800
C1663       C  0.46292602  0.84920152  0.69980925     0.20600
C1664       C  0.48214321  0.84703023  0.68578313     0.02800
C1665       C  0.52597209  0.88013734  0.68184459    -0.22500
C1666       C  0.54943874  0.91470983  0.69275204     0.12000
S1667       S  0.56291357  0.95904079  0.71877667    -0.06200
C1668       C  0.60416393  0.97662137  0.70472417    -0.09700
C1669       C  0.59253819  0.94994225  0.69140745    -0.26300
S1670       S  0.44858305  0.80062682  0.67482651    -0.03500
C1671       C  0.40869278  0.78441951  0.68941926    -0.16900
C1672       C  0.42082436  0.81384101  0.70187611    -0.14900
H1673       H  0.47109806  0.88466443  0.72162453     0.20400
H1674       H  0.54125832  0.87861146  0.67093972     0.16500
H1675       H  0.61417287  0.95596237  0.68140177     0.19000
H1676       H  0.40055542  0.80881793  0.71221461     0.12300
C1677       C  0.66434112  0.11080211  0.76440915     0.16200
C1678       C  0.64118600  0.10955636  0.77802545    -0.32800
C1679       C  0.64677135  0.15013808  0.78356899     0.20600
C1680       C  0.67581066  0.19062191  0.77634227     0.02800
C1681       C  0.69939194  0.19191671  0.76270253    -0.22500
C1682       C  0.69228713  0.15087338  0.75671664     0.12000
S1683       S  0.65664789  0.06433467  0.75490508    -0.06200
C1684       C  0.68968784  0.09856359  0.73987903    -0.09700
C1685       C  0.70745665  0.14409778  0.74257974    -0.26300
S1686       S  0.67730425  0.23605937  0.78500583    -0.03500
C1687       C  0.63693523  0.19966008  0.79797803    -0.16900
C1688       C  0.62415494  0.15502698  0.79586508    -0.14900
H1689       H  0.61810734  0.07799959  0.78362918     0.20400
H1690       H  0.72079341  0.22325300  0.75667552     0.16500
H1691       H  0.72695651  0.17030320  0.73413280     0.19000
H1692       H  0.59954726  0.12755816  0.80296317     0.12300
loop_ 
_geom_bond_atom_site_label_1 
_geom_bond_atom_site_label_2 
_geom_bond_distance 
_geom_bond_site_symmetry_2 
_ccdc_geom_bond_type 
C1            N2   1.346       .  A
C1            N6   1.359       .  A
C1         C1684   1.472       .  S
N2            C3   1.348       .  A
C3            N4   1.359       .  A
C3         C1668   1.467   1_545  S
N4            C5   1.365       .  A
C5            N6   1.369       .  A
C5           C11   1.472       .  S
C7            N8   1.360       .  A
C7           N12   1.363       .  A
C7         C1655   1.488       .  S
N8            C9   1.359       .  A
C9           N10   1.354       .  A
C9         C1636   1.476       .  S
N10          C11   1.358       .  A
C11          N12   1.366       .  A
C13          N14   1.358       .  A
C13          N18   1.350       .  A
C13        C1604   1.475       .  S
N14          C15   1.367       .  A
C15          N16   1.369       .  A
C15          C21   1.479       .  S
N16          C17   1.363       .  A
C17          N18   1.349       .  A
C17        C1623   1.474       .  S
C19          N20   1.363       .  A
C19          N24   1.351       .  A
C19        C1591   1.479       .  S
N20          C21   1.369       .  A
C21          N22   1.368       .  A
N22          C23   1.359       .  A
C23          N24   1.349       .  A
C23        C1572   1.477       .  S
C25          N26   1.358       .  A
C25          N30   1.350       .  A
C25        C1556   1.479       .  S
N26          C27   1.367       .  A
C27          N28   1.370       .  A
C27          C35   1.476       .  S
N28          C29   1.362       .  A
C29          N30   1.351       .  A
C29        C1543   1.480       .  S
C31          N32   1.349       .  A
C31          N36   1.360       .  A
C31        C1508   1.473       .  S
N32          C33   1.349       .  A
C33          N34   1.360       .  A
C33        C1527   1.474       .  S
N34          C35   1.368       .  A
C35          N36   1.367       .  A
C37          N38   1.348       .  A
C37          N42   1.361   1_556  A
C37        C1479   1.480       .  S
N38          C39   1.351   1_556  A
C39          N40   1.359       .  A
C39        C1495   1.472       .  S
N40          C41   1.367       .  A
C41          N42   1.371       .  A
C41          C47   1.478       .  S
C43          N44   1.348       .  A
C43          N48   1.364       .  A
C43        C1460   1.476       .  S
N44          C45   1.349       .  A
C45          N46   1.357       .  A
C45        C1447   1.467       .  S
N46          C47   1.366       .  A
C47          N48   1.372       .  A
C49          N50   1.357       .  A
C49          N54   1.344   1_455  A
C49        C1412   1.471       .  S
N50          C51   1.371       .  A
C51          N52   1.369   1_455  A
C51          C59   1.473       .  S
N52          C53   1.361       .  A
C53          N54   1.346       .  A
C53        C1428   1.472       .  S
C55          N56   1.356       .  A
C55          N60   1.364       .  A
C55        C1396   1.482       .  S
N56          C57   1.352       .  A
C57          N58   1.353       .  A
C57        C1380   1.470       .  S
N58          C59   1.360       .  A
C59          N60   1.368       .  A
C61          N62   1.363       .  A
C61          N66   1.350       .  A
C61        C1348   1.476       .  S
N62          C63   1.369       .  A
C63          N64   1.366       .  A
C63          C71   1.473       .  S
N64          C65   1.355       .  A
C65          N66   1.349       .  A
C65        C1364   1.475       .  S
C67          N68   1.349       .  A
C67          N72   1.356       .  A
C67        C1316   1.473       .  S
N68          C69   1.351       .  A
C69          N70   1.362       .  A
C69        C1335   1.472   1_545  S
N70          C71   1.367       .  A
C71          N72   1.364       .  A
C73          N74   1.347       .  A
C73          N78   1.364       .  A
C73        C1303   1.481       .  S
N74          C75   1.345   1_455  A
C75          N76   1.357   1_655  A
C75        C1284   1.472       .  S
N76          C77   1.368       .  A
C77          N78   1.374       .  A
C77          C81   1.478       .  S
C79          N80   1.360       .  A
C79          N84   1.350       .  A
C79        C1271   1.484       .  S
N80          C81   1.370       .  A
C81          N82   1.367       .  A
N82          C83   1.361       .  A
C83          N84   1.353       .  A
C83        C1252   1.476       .  S
C85          N86   1.360       .  A
C85          N90   1.347       .  A
C85        C1236   1.477       .  S
N86          C87   1.371       .  A
C87          N88   1.368       .  A
C87          C95   1.472       .  S
N88          C89   1.358       .  A
C89          N90   1.347       .  A
C89        C1223   1.472       .  S
C91          N92   1.356       .  A
C91          N96   1.360       .  A
C91        C1188   1.483       .  S
N92          C93   1.356       .  A
C93          N94   1.357       .  A
C93        C1204   1.476       .  S
N94          C95   1.362       .  A
C95          N96   1.366       .  A
C97          N98   1.359       .  A
C97         N102   1.349       .  A
C97        C1172   1.472       .  S
N98          C99   1.366       .  A
C99         N100   1.368       .  A
C99         C105   1.473       .  S
N100        C101   1.359       .  A
C101        N102   1.348       .  A
C101       C1159   1.474       .  S
C103        N104   1.357       .  A
C103        N108   1.352       .  A
C103       C1127   1.476       .  S
N104        C105   1.364       .  A
C105        N106   1.368       .  A
N106        C107   1.361       .  A
C107        N108   1.353       .  A
C107       C1140   1.478       .  S
C109        N110   1.351       .  A
C109        N114   1.359       .  A
C109       C1095   1.475       .  S
N110        C111   1.353   1_556  A
C111        N112   1.364       .  A
C111       C1111   1.477       .  S
N112        C113   1.369       .  A
C113        N114   1.366   1_554  A
C113        C119   1.481       .  S
C115        N116   1.352       .  A
C115        N120   1.363       .  A
C115       C1076   1.480       .  S
N116        C117   1.351       .  A
C117        N118   1.359       .  A
C117       C1063   1.482       .  S
N118        C119   1.369       .  A
C119        N120   1.370       .  A
C121        N122   1.354       .  A
C121        N126   1.354       .  A
C121       C1031   1.474       .  S
N122        C123   1.355       .  A
C123        N124   1.362       .  A
C123       C1047   1.479       .  S
N124        C125   1.366       .  A
C125        N126   1.362       .  A
C125        C131   1.471       .  S
C127        N128   1.352       .  A
C127        N132   1.361       .  A
C127       C1012   1.471       .  S
N128        C129   1.352   1_455  A
C129        N130   1.355   1_655  A
C129        C996   1.475       .  S
N130        C131   1.364       .  A
C131        N132   1.366       .  A
C133        N134   1.356       .  A
C133        N138   1.350       .  A
C133        C964   1.468       .  S
N134        C135   1.364       .  A
C135        N136   1.365       .  A
C135        C143   1.467       .  S
N136        C137   1.358       .  A
C137        N138   1.348       .  A
C137        C980   1.469       .  S
C139        N140   1.356       .  A
C139        N144   1.357       .  A
C139        C932   1.475       .  S
N140        C141   1.354       .  A
C141        N142   1.357       .  A
C141        C951   1.478   1_545  S
N142        C143   1.363       .  A
C143        N144   1.363       .  A
C145        N146   1.359       .  A
C145        N150   1.351       .  A
C145        C919   1.488       .  S
N146        C147   1.371       .  A
C147        N148   1.365       .  A
C147        C153   1.479       .  S
N148        C149   1.362       .  A
C149        N150   1.354       .  A
C149        C903   1.473       .  S
C151        N152   1.370       .  A
C151        N156   1.351       .  A
C151        C884   1.489       .  S
N152        C153   1.377       .  A
C153        N154   1.362       .  A
N154        C155   1.350       .  A
C155        N156   1.347       .  A
C155        C871   1.469       .  S
C157        N158   1.361       .  A
C157        N162   1.351       .  A
C157        C852   1.467       .  S
N158        C159   1.366       .  A
C159        N160   1.365       .  A
C159        C165   1.469       .  S
N160        C161   1.354       .  A
C161        N162   1.349       .  A
C161        C839   1.473       .  S
C163        N164   1.352       .  A
C163        N168   1.348       .  A
C163        C820   1.468       .  S
N164        C165   1.362       .  A
C165        N166   1.368       .  A
N166        C167   1.364       .  A
C167        N168   1.350       .  A
C167        C804   1.474   1_545  S
C169        N170   1.362       .  A
C169        N174   1.346       .  A
C169        C775   1.475   1_565  S
N170        C171   1.370       .  A
C171        N172   1.372       .  A
C171        C179   1.483       .  S
N172        C173   1.361       .  A
C173        N174   1.346       .  A
C173        C791   1.474       .  S
C175        N176   1.350       .  A
C175        N180   1.360       .  A
C175        C743   1.476       .  S
N176        C177   1.350       .  A
C177        N178   1.364       .  A
C177        C756   1.480       .  S
N178        C179   1.371       .  A
C179        N180   1.368       .  A
C181        N182   1.357       .  A
C181        N186   1.348       .  A
C181        C708   1.479       .  S
N182        C183   1.369       .  A
C183        N184   1.372       .  A
C183        C191   1.481       .  S
N184        C185   1.365       .  A
C185        N186   1.349       .  A
C185        C727   1.481       .  S
C187        N188   1.346       .  A
C187        N192   1.365       .  A
C187        C692   1.479       .  S
N188        C189   1.343       .  A
C189        N190   1.358       .  A
C189        C676   1.474       .  S
N190        C191   1.371       .  A
C191        N192   1.374       .  A
C193        N194   1.353       .  A
C193        N198   1.349       .  A
C193        C660   1.470   1_554  S
N194        C195   1.363       .  A
C195        N196   1.366       .  A
C195        C201   1.468       .  S
N196        C197   1.362       .  A
C197        N198   1.353       .  A
C197        C644   1.472       .  S
C199        N200   1.363       .  A
C199        N204   1.351       .  A
C199        C612   1.478       .  S
N200        C201   1.368       .  A
C201        N202   1.364       .  A
N202        C203   1.352       .  A
C203        N204   1.351       .  A
C203        C631   1.472       .  S
C205        N206   1.360       .  A
C205        N210   1.348       .  A
C205        C580   1.468       .  S
N206        C207   1.365       .  A
C207        N208   1.364       .  A
C207        C215   1.465       .  S
N208        C209   1.354       .  A
C209        N210   1.348       .  A
C209        C599   1.467       .  S
C211        N212   1.352   1_455  A
C211        N216   1.353       .  A
C211        C548   1.469       .  S
N212        C213   1.354       .  A
C213        N214   1.361   1_655  A
C213        C564   1.477       .  S
N214        C215   1.366       .  A
C215        N216   1.361       .  A
O217        C228   1.294       .  A
O217       Eu253   2.470       .  S
O218        C229   1.289       .  A
O218       Eu252   2.453       .  S
O219        C230   1.292       .  A
O219       Eu225   2.464       .  S
O220        C231   1.293       .  A
O220       Eu225   2.471       .  S
O221        C231   1.292       .  A
O221       Eu255   2.460       .  S
O222        C230   1.293       .  A
O222       Eu254   2.477       .  S
O223        C229   1.292       .  A
O223       Eu225   2.457       .  S
O224        C228   1.290       .  A
O224       Eu225   2.455       .  S
Eu225       O235   2.359       .  S
Eu225       O227   2.358       .  S
Eu225       O226   2.349       .  S
Eu225       O233   2.355       .  S
O226       Eu255   2.349       .  S
O226       Eu252   2.353       .  S
O227       Eu253   2.364       .  S
O227       Eu254   2.354       .  S
C228       C1687   1.471       .  S
C229       C1287   1.470       .  S
C230       C1191   1.484       .  S
C231        C567   1.479       .  S
H232        O233   0.966       .  S
O233       Eu254   2.351       .  S
O233       Eu252   2.362       .  S
H234        O235   0.965       .  S
O235       Eu253   2.349       .  S
O235       Eu255   2.338       .  S
O236        C259   1.290       .  A
O236       Eu252   2.450       .  S
O237        C260   1.292       .  A
O237       Eu253   2.472       .  S
O238        C261   1.291       .  A
O238       Eu254   2.461       .  S
O239        C262   1.286       .  A
O239       Eu255   2.421       .  S
O240        C263   1.290       .  A
O240       Eu255   2.460       .  S
O241        C264   1.292       .  A
O241       Eu254   2.459       .  S
O242        C265   1.288       .  A
O242       Eu256   2.442       .  S
O243        C266   1.293       .  A
O243       Eu256   2.470       .  S
O244        C265   1.290       .  A
O244       Eu254   2.447       .  S
O245        C266   1.289       .  A
O245       Eu255   2.453       .  S
O246        C261   1.293       .  A
O246       Eu252   2.466       .  S
O247        C264   1.287       .  A
O247       Eu253   2.438       .  S
O248        C263   1.290       .  A
O248       Eu253   2.454       .  S
O249        C262   1.293       .  A
O249       Eu252   2.473       .  S
O250        C259   1.295       .  A
O250       Eu256   2.489       .  S
O251        C260   1.291       .  A
O251       Eu256   2.448       .  S
Eu252       O270   2.358       .  S
Eu252       O258   2.343       .  S
Eu253       O257   2.351       .  S
Eu253       O268   2.358       .  S
Eu254       O268   2.354       .  S
Eu254       O258   2.358       .  S
Eu255       O257   2.339       .  S
Eu255       O270   2.355       .  S
Eu256       O257   2.354       .  S
Eu256       O268   2.363       .  S
Eu256       O270   2.344       .  S
Eu256       O258   2.352       .  S
C259       C1476   1.482       .  S
C260       C1255   1.477       .  S
C261       C1575   1.478       .  S
C262        C663   1.466       .  S
C263       C1620   1.471       .  S
C264        C855   1.465       .  S
C265        C596   1.462       .  S
C266       C1092   1.473       .  S
H267        O268   0.965       .  S
H269        O270   0.966       .  S
O271        C282   1.291       .  A
O271       Eu307   2.447   1_556  S
O272        C283   1.289       .  A
O272       Eu306   2.451       .  S
O273        C284   1.292       .  A
O273       Eu279   2.473       .  S
O274        C285   1.286       .  A
O274       Eu279   2.425   1_546  S
O275        C285   1.294       .  A
O275       Eu309   2.480   1_546  S
O276        C284   1.290       .  A
O276       Eu308   2.456       .  S
O277        C283   1.294       .  A
O277       Eu279   2.468   1_545  S
O278        C282   1.294       .  A
O278       Eu279   2.480   1_556  S
Eu279       O289   2.366   1_554  S
Eu279       O281   2.340       .  S
Eu279       O280   2.357   1_565  S
Eu279       O287   2.350       .  S
O280       Eu309   2.355   1_545  S
O280       Eu306   2.361       .  S
O281       Eu307   2.360       .  S
O281       Eu308   2.344       .  S
C282       C1588   1.479       .  S
C283        C647   1.473       .  S
C284       C1060   1.480       .  S
C285        C551   1.470       .  S
H286        O287   0.965       .  S
O287       Eu308   2.337       .  S
O287       Eu306   2.370   1_565  S
H288        O289   0.966       .  S
O289       Eu307   2.351   1_556  S
O289       Eu309   2.353   1_556  S
O290        C313   1.295   1_545  A
O290       Eu306   2.478       .  S
O291        C314   1.291       .  A
O291       Eu307   2.462       .  S
O292        C315   1.288       .  A
O292       Eu308   2.437       .  S
O293        C316   1.285       .  A
O293       Eu309   2.426   1_445  S
O294        C317   1.288       .  A
O294       Eu309   2.438   1_556  S
O295        C318   1.286       .  A
O295       Eu308   2.436       .  S
O296        C319   1.293       .  A
O296       Eu310   2.469       .  S
O297        C320   1.288       .  A
O297       Eu310   2.445   1_455  S
O298        C319   1.288       .  A
O298       Eu308   2.449       .  S
O299        C320   1.295       .  A
O299       Eu309   2.485   1_455  S
O300        C315   1.294   1_545  A
O300       Eu306   2.481       .  S
O301        C318   1.293       .  A
O301       Eu307   2.461       .  S
O302        C317   1.297       .  A
O302       Eu307   2.499   1_556  S
O303        C316   1.297       .  A
O303       Eu306   2.486   1_455  S
O304        C313   1.289       .  A
O304       Eu310   2.451       .  S
O305        C314   1.288       .  A
O305       Eu310   2.436       .  S
Eu306       O324   2.357   1_545  S
Eu306       O312   2.351   1_545  S
Eu307       O311   2.348       .  S
Eu307       O322   2.361       .  S
Eu308       O322   2.349       .  S
Eu308       O312   2.350       .  S
Eu309       O311   2.342       .  S
Eu309       O324   2.367       .  S
Eu310       O311   2.354       .  S
Eu310       O322   2.346       .  S
Eu310       O324   2.360       .  S
Eu310       O312   2.340       .  S
C313       C1351   1.478   1_655  S
C314        C628   1.468       .  S
C315        C935   1.474       .  S
C316       C1444   1.469       .  S
C317       C1268   1.484       .  S
C318       C1492   1.465       .  S
C319        C695   1.476       .  S
C320       C1108   1.473       .  S
H321        O322   0.965       .  S
H323        O324   0.966       .  S
O325        C336   1.293       .  A
O325       Eu361   2.467       .  S
O326        C337   1.290       .  A
O326       Eu360   2.457       .  S
O327        C338   1.295       .  A
O327       Eu333   2.480       .  S
O328        C339   1.292       .  A
O328       Eu333   2.467       .  S
O329        C339   1.291       .  A
O329       Eu363   2.454       .  S
O330        C338   1.286       .  A
O330       Eu362   2.431       .  S
O331        C337   1.290       .  A
O331       Eu333   2.447       .  S
O332        C336   1.291       .  A
O332       Eu333   2.461       .  S
Eu333       O343   2.355       .  S
Eu333       O335   2.344       .  S
Eu333       O334   2.364       .  S
Eu333       O341   2.354       .  S
O334       Eu363   2.350       .  S
O334       Eu360   2.345       .  S
O335       Eu361   2.350       .  S
O335       Eu362   2.355       .  S
C336       C1559   1.477       .  S
C337        C868   1.469       .  S
C338        C772   1.470       .  S
C339        C999   1.473       .  S
H340        O341   0.966       .  S
O341       Eu362   2.357       .  S
O341       Eu360   2.351       .  S
H342        O343   0.965       .  S
O343       Eu361   2.336       .  S
O343       Eu363   2.349       .  S
O344        C367   1.288       .  A
O344       Eu360   2.438       .  S
O345        C368   1.290       .  A
O345       Eu361   2.453       .  S
O346        C369   1.294       .  A
O346       Eu362   2.480       .  S
O347        C370   1.288       .  A
O347       Eu363   2.440       .  S
O348        C371   1.285       .  A
O348       Eu363   2.429       .  S
O349        C372   1.290       .  A
O349       Eu362   2.451       .  S
O350        C373   1.292       .  A
O350       Eu364   2.465       .  S
O351        C374   1.291       .  A
O351       Eu364   2.452       .  S
O352        C373   1.291       .  A
O352       Eu362   2.460       .  S
O353        C374   1.291       .  A
O353       Eu363   2.463       .  S
O354        C369   1.284       .  A
O354       Eu360   2.412       .  S
O355        C372   1.290       .  A
O355       Eu361   2.452       .  S
O356        C371   1.296       .  A
O356       Eu361   2.488       .  S
O357        C370   1.287       .  A
O357       Eu360   2.444       .  S
O358        C367   1.294       .  A
O358       Eu364   2.476       .  S
O359        C368   1.293       .  A
O359       Eu364   2.466       .  S
Eu360       O378   2.345       .  S
Eu360       O366   2.352       .  S
Eu361       O365   2.347       .  S
Eu361       O376   2.369       .  S
Eu362       O376   2.360       .  S
Eu362       O366   2.335       .  S
Eu363       O365   2.347       .  S
Eu363       O378   2.343       .  S
Eu364       O365   2.354       .  S
Eu364       O376   2.356       .  S
Eu364       O378   2.358       .  S
Eu364       O366   2.348       .  S
C367       C1319   1.473       .  S
C368        C900   1.473       .  S
C369       C1383   1.467       .  S
C370        C967   1.463       .  S
C371       C1431   1.474       .  S
C372       C1175   1.467       .  S
C373       C1044   1.477       .  S
C374        C711   1.472       .  S
H375        O376   0.966       .  S
H377        O378   0.965       .  S
O379        C390   1.286       .  A
O379       Eu415   2.436       .  S
O380        C391   1.295       .  A
O380       Eu414   2.478       .  S
O381        C392   1.290       .  A
O381       Eu387   2.454       .  S
O382        C393   1.291       .  A
O382       Eu387   2.456       .  S
O383        C393   1.290       .  A
O383       Eu417   2.457       .  S
O384        C392   1.291       .  A
O384       Eu416   2.457       .  S
O385        C391   1.288       .  A
O385       Eu387   2.446       .  S
O386        C390   1.292       .  A
O386       Eu387   2.461       .  S
Eu387       O397   2.350       .  S
Eu387       O389   2.340       .  S
Eu387       O388   2.346       .  S
Eu387       O395   2.358       .  S
O388       Eu417   2.343       .  S
O388       Eu414   2.341       .  S
O389       Eu415   2.352       .  S
O389       Eu416   2.357       .  S
C390       C1671   1.467       .  S
C391       C1300   1.477       .  S
C392        C807   1.472       .  S
C393       C1607   1.473       .  S
H394        O395   0.966       .  S
O395       Eu416   2.359       .  S
O395       Eu414   2.361       .  S
H396        O397   0.966       .  S
O397       Eu415   2.346       .  S
O397       Eu417   2.356       .  S
O398        C421   1.294       .  A
O398       Eu414   2.483       .  S
O399        C422   1.287       .  A
O399       Eu415   2.434       .  S
O400        C423   1.296       .  A
O400       Eu416   2.493       .  S
O401        C424   1.290       .  A
O401       Eu417   2.448       .  S
O402        C425   1.288       .  A
O402       Eu417   2.448       .  S
O403        C426   1.295       .  A
O403       Eu416   2.475       .  S
O404        C427   1.288       .  A
O404       Eu418   2.439       .  S
O405        C428   1.290       .  A
O405       Eu418   2.454       .  S
O406        C427   1.292       .  A
O406       Eu416   2.467       .  S
O407        C428   1.291       .  A
O407       Eu417   2.453       .  S
O408        C423   1.287       .  A
O408       Eu414   2.431       .  S
O409        C426   1.290       .  A
O409       Eu415   2.455       .  S
O410        C425   1.294       .  A
O410       Eu415   2.473       .  S
O411        C424   1.290       .  A
O411       Eu414   2.457       .  S
O412        C421   1.289       .  A
O412       Eu418   2.442       .  S
O413        C422   1.293       .  A
O413       Eu418   2.478       .  S
Eu414       O432   2.355       .  S
Eu414       O420   2.360       .  S
Eu415       O419   2.348       .  S
Eu415       O430   2.348       .  S
Eu416       O430   2.355       .  S
Eu416       O420   2.357       .  S
Eu417       O419   2.354       .  S
Eu417       O432   2.351       .  S
Eu418       O419   2.352       .  S
Eu418       O430   2.343       .  S
Eu418       O432   2.358       .  S
Eu418       O420   2.359       .  S
C421       C1639   1.478       .  S
C422       C1124   1.474       .  S
C423       C1207   1.477       .  S
C424        C583   1.471       .  S
C425       C1220   1.475       .  S
C426        C740   1.478       .  S
C427       C1511   1.470       .  S
C428        C836   1.470       .  S
H429        O430   0.965       .  S
H431        O432   0.966       .  S
O433        C444   1.295       .  A
O433       Eu469   2.485       .  S
O434        C445   1.294       .  A
O434       Eu468   2.482       .  S
O435        C446   1.294       .  A
O435       Eu441   2.469       .  S
O436        C447   1.291       .  A
O436       Eu441   2.463       .  S
O437        C447   1.292       .  A
O437       Eu471   2.459       .  S
O438        C446   1.290       .  A
O438       Eu470   2.457       .  S
O439        C445   1.289       .  A
O439       Eu441   2.444       .  S
O440        C444   1.290       .  A
O440       Eu441   2.459       .  S
Eu441       O451   2.349       .  S
Eu441       O443   2.356       .  S
Eu441       O442   2.347       .  S
Eu441       O449   2.355       .  S
O442       Eu471   2.344       .  S
O442       Eu468   2.343       .  S
O443       Eu469   2.344       .  S
O443       Eu470   2.361       .  S
C444       C1463   1.481       .  S
C445        C948   1.479       .  S
C446       C1079   1.477       .  S
C447        C724   1.477       .  S
H448        O449   0.966       .  S
O449       Eu470   2.370       .  S
O449       Eu468   2.361       .  S
H450        O451   0.966       .  S
O451       Eu469   2.352       .  S
O451       Eu471   2.363       .  S
O452        C475   1.292       .  A
O452       Eu468   2.457       .  S
O453        C476   1.288       .  A
O453       Eu469   2.442       .  S
O454        C477   1.289       .  A
O454       Eu470   2.450       .  S
O455        C478   1.293       .  A
O455       Eu471   2.465       .  S
O456        C479   1.292       .  A
O456       Eu471   2.468       .  S
O457        C480   1.293       .  A
O457       Eu470   2.471       .  S
O458        C481   1.288       .  A
O458       Eu472   2.445       .  S
O459        C482   1.289       .  A
O459       Eu472   2.447       .  S
O460        C481   1.294       .  A
O460       Eu470   2.476       .  S
O461        C482   1.291       .  A
O461       Eu471   2.466       .  S
O462        C477   1.293       .  A
O462       Eu468   2.462       .  S
O463        C480   1.292       .  A
O463       Eu469   2.471       .  S
O464        C479   1.289       .  A
O464       Eu469   2.438       .  S
O465        C478   1.295       .  A
O465       Eu468   2.487       .  S
O466        C475   1.292       .  A
O466       Eu472   2.470       .  S
O467        C476   1.293       .  A
O467       Eu472   2.465       .  S
Eu468       O486   2.359       .  S
Eu468       O474   2.362       .  S
Eu469       O473   2.366       .  S
Eu469       O484   2.356       .  S
Eu470       O484   2.340       .  S
Eu470       O474   2.356       .  S
Eu471       O473   2.351       .  S
Eu471       O486   2.355       .  S
Eu472       O473   2.353       .  S
Eu472       O484   2.357       .  S
Eu472       O486   2.356       .  S
Eu472       O474   2.353       .  S
C475       C1399   1.478       .  S
C476        C983   1.469       .  S
C477       C1332   1.471       .  S
C478        C916   1.487       .  S
C479       C1367   1.471       .  S
C480        C615   1.484       .  S
C481        C679   1.474       .  S
C482       C1015   1.469       .  S
H483        O484   0.966       .  S
H485        O486   0.966       .  S
O487        C498   1.290   1_545  A
O487       Eu523   2.446       .  S
O488        C499   1.290       .  A
O488       Eu522   2.457       .  S
O489        C500   1.287       .  A
O489       Eu495   2.441       .  S
O490        C501   1.292       .  A
O490       Eu495   2.454       .  S
O491        C501   1.289       .  A
O491       Eu525   2.458       .  S
O492        C500   1.295       .  A
O492       Eu524   2.476       .  S
O493        C499   1.294       .  A
O493       Eu495   2.467       .  S
O494        C498   1.297       .  A
O494       Eu495   2.501       .  S
Eu495       O505   2.353       .  S
Eu495       O497   2.346       .  S
Eu495       O496   2.356       .  S
Eu495       O503   2.367       .  S
O496       Eu525   2.345       .  S
O496       Eu522   2.359       .  S
O497       Eu523   2.348   1_565  S
O497       Eu524   2.356       .  S
C498       C1652   1.488       .  S
C499       C1143   1.476       .  S
C500        C788   1.470       .  S
C501       C1239   1.475       .  S
H502        O503   0.966       .  S
O503       Eu524   2.347       .  S
O503       Eu522   2.363       .  S
H504        O505   0.966       .  S
O505       Eu523   2.367   1_565  S
O505       Eu525   2.366       .  S
O506        C529   1.294       .  A
O506       Eu522   2.471       .  S
O507        C530   1.291       .  A
O507       Eu523   2.467   1_455  S
O508        C531   1.296       .  A
O508       Eu524   2.483       .  S
O509        C532   1.289       .  A
O509       Eu525   2.456       .  S
O510        C533   1.285       .  A
O510       Eu525   2.420       .  S
O511        C534   1.289       .  A
O511       Eu524   2.450   1_545  S
O512        C535   1.288       .  A
O512       Eu526   2.439   1_545  S
O513        C536   1.292       .  A
O513       Eu526   2.470   1_455  S
O514        C535   1.292       .  A
O514       Eu524   2.472   1_545  S
O515        C536   1.291       .  A
O515       Eu525   2.461   1_455  S
O516        C531   1.291       .  A
O516       Eu522   2.464       .  S
O517        C534   1.295       .  A
O517       Eu523   2.472       .  S
O518        C533   1.295   1_545  A
O518       Eu523   2.488       .  S
O519        C532   1.294       .  A
O519       Eu522   2.469       .  S
O520        C529   1.287       .  A
O520       Eu526   2.444       .  S
O521        C530   1.291       .  A
O521       Eu526   2.454   1_445  S
Eu522       O540   2.352       .  S
Eu522       O528   2.350       .  S
Eu523       O527   2.345   1_545  S
Eu523       O538   2.361       .  S
Eu524       O538   2.372   1_565  S
Eu524       O528   2.354       .  S
Eu525       O527   2.347       .  S
Eu525       O540   2.348       .  S
Eu526       O527   2.336       .  S
Eu526       O538   2.354   1_565  S
Eu526       O540   2.351       .  S
Eu526       O528   2.357       .  S
C529       C1415   1.471       .  S
C530       C1156   1.475       .  S
C531        C887   1.486       .  S
C532       C1540   1.478       .  S
C533        C823   1.471   1_655  S
C534       C1524   1.474       .  S
C535       C1028   1.472       .  S
C536        C759   1.477       .  S
H537        O538   0.966       .  S
H539        O540   0.966       .  S
C541        S547   1.713       .  A
C541        C546   1.386   1_455  A
C541        C542   1.407       .  A
C542        C543   1.407   1_455  A
C542        H553   1.083       .  S
C543        C552   1.376       .  A
C543        C544   1.388       .  A
C544        S550   1.692       .  A
C544        C545   1.392       .  A
C545        C546   1.393       .  A
C545        H554   1.083       .  S
C546        C549   1.360       .  A
S547        C548   1.726       .  A
C548        C549   1.382   1_455  A
C549        H555   1.084       .  S
S550        C551   1.722       .  A
C551        C552   1.389       .  A
C552        H556   1.083   1_655  S
C557        S563   1.720       .  A
C557        C562   1.385       .  A
C557        C558   1.409       .  A
C558        C559   1.411       .  A
C558        H569   1.083       .  S
C559        C568   1.379       .  A
C559        C560   1.387       .  A
C560        S566   1.700       .  A
C560        C561   1.395       .  A
C561        C562   1.397       .  A
C561        H570   1.083       .  S
C562        C565   1.362       .  A
S563        C564   1.728       .  A
C564        C565   1.385       .  A
C565        H571   1.083       .  S
S566        C567   1.722       .  A
C567        C568   1.393       .  A
C568        H572   1.083       .  S
C573        S579   1.692       .  A
C573        C578   1.388       .  A
C573        C574   1.394       .  A
C574        C575   1.395       .  A
C574        H585   1.083       .  S
C575        C584   1.363       .  A
C575        C576   1.386       .  A
C576        S582   1.710       .  A
C576        C577   1.405       .  A
C577        C578   1.405       .  A
C577        H586   1.083       .  S
C578        C581   1.376       .  A
S579        C580   1.723       .  A
C580        C581   1.387       .  A
C581        H587   1.083       .  S
S582        C583   1.726       .  A
C583        C584   1.384       .  A
C584        H588   1.083       .  S
C589        S595   1.693       .  A
C589        C594   1.388       .  A
C589        C590   1.387       .  A
C590        C591   1.391       .  A
C590        H601   1.084       .  S
C591        C600   1.352       .  A
C591        C592   1.386       .  A
C592        S598   1.717       .  A
C592        C593   1.406       .  A
C593        C594   1.408       .  A
C593        H602   1.083       .  S
C594        C597   1.371       .  A
S595        C596   1.716       .  A
C596        C597   1.390       .  A
C597        H603   1.083       .  S
S598        C599   1.726       .  A
C599        C600   1.381       .  A
C600        H604   1.084       .  S
C605        S611   1.697       .  A
C605        C610   1.387       .  A
C605        C606   1.399   1_655  A
C606        C607   1.399       .  A
C606        H617   1.083       .  S
C607        C616   1.371       .  A
C607        C608   1.386       .  A
C608        S614   1.715       .  A
C608        C609   1.410       .  A
C609        C610   1.409   1_455  A
C609        H618   1.083       .  S
C610        C613   1.382       .  A
S611        C612   1.725       .  A
C612        C613   1.391       .  A
C613        H619   1.083       .  S
S614        C615   1.730       .  A
C615        C616   1.387       .  A
C616        H620   1.083       .  S
C621        S627   1.686       .  A
C621        C626   1.388       .  A
C621        C622   1.386       .  A
C622        C623   1.388       .  A
C622        H633   1.084       .  S
C623        C632   1.354       .  A
C623        C624   1.385       .  A
C624        S630   1.720       .  A
C624        C625   1.412       .  A
C625        C626   1.412       .  A
C625        H634   1.083       .  S
C626        C629   1.379       .  A
S627        C628   1.717       .  A
C628        C629   1.393       .  A
C629        H635   1.083       .  S
S630        C631   1.731       .  A
C631        C632   1.379       .  A
C632        H636   1.084       .  S
C637        S643   1.690       .  A
C637        C642   1.388       .  A
C637        C638   1.391       .  A
C638        C639   1.391       .  A
C638        H649   1.083       .  S
C639        C648   1.360       .  A
C639        C640   1.386       .  A
C640        S646   1.716       .  A
C640        C641   1.410       .  A
C641        C642   1.410       .  A
C641        H650   1.083       .  S
C642        C645   1.380       .  A
S643        C644   1.721       .  A
C644        C645   1.391       .  A
C645        H651   1.083       .  S
S646        C647   1.730       .  A
C647        C648   1.380       .  A
C648        H652   1.084       .  S
C653        S659   1.714       .  A
C653        C658   1.386       .  A
C653        C654   1.407       .  A
C654        C655   1.407       .  A
C654        H665   1.083       .  S
C655        C664   1.376       .  A
C655        C656   1.388       .  A
C656        S662   1.691       .  A
C656        C657   1.391       .  A
C657        C658   1.393       .  A
C657        H666   1.083       .  S
C658        C661   1.359       .  A
S659        C660   1.726       .  A
C660        C661   1.382       .  A
C661        H667   1.084       .  S
S662        C663   1.720       .  A
C663        C664   1.389       .  A
C664        H668   1.083       .  S
C669        S675   1.690       .  A
C669        C674   1.388       .  A
C669        C670   1.395       .  A
C670        C671   1.394       .  A
C670        H681   1.083       .  S
C671        C680   1.366   1_655  A
C671        C672   1.386       .  A
C672        S678   1.713   1_655  A
C672        C673   1.410       .  A
C673        C674   1.409       .  A
C673        H682   1.083       .  S
C674        C677   1.383       .  A
S675        C676   1.723       .  A
C676        C677   1.391       .  A
C677        H683   1.083       .  S
S678        C679   1.729       .  A
C679        C680   1.382       .  A
C680        H684   1.083       .  S
C685        S691   1.687       .  A
C685        C690   1.387       .  A
C685        C686   1.395       .  A
C686        C687   1.393       .  A
C686        H697   1.083       .  S
C687        C696   1.367       .  A
C687        C688   1.386       .  A
C688        S694   1.712       .  A
C688        C689   1.411       .  A
C689        C690   1.409       .  A
C689        H698   1.083       .  S
C690        C693   1.385       .  A
S691        C692   1.726       .  A
C692        C693   1.391       .  A
C693        H699   1.082       .  S
S694        C695   1.730       .  A
C695        C696   1.383       .  A
C696        H700   1.083       .  S
C701        S707   1.721       .  A
C701        C706   1.385       .  A
C701        C702   1.409       .  A
C702        C703   1.411       .  A
C702        H713   1.083       .  S
C703        C712   1.376       .  A
C703        C704   1.387       .  A
C704        S710   1.699       .  A
C704        C705   1.393       .  A
C705        C706   1.396       .  A
C705        H714   1.083       .  S
C706        C709   1.359       .  A
S707        C708   1.728       .  A
C708        C709   1.386       .  A
C709        H715   1.084       .  S
S710        C711   1.720       .  A
C711        C712   1.392       .  A
C712        H716   1.083       .  S
C717        S723   1.714       .  A
C717        C722   1.386       .  A
C717        C718   1.411       .  A
C718        C719   1.410       .  A
C718        H729   1.083       .  S
C719        C728   1.385       .  A
C719        C720   1.387       .  A
C720        S726   1.691       .  A
C720        C721   1.396       .  A
C721        C722   1.395       .  A
C721        H730   1.083       .  S
C722        C725   1.367       .  A
S723        C724   1.729       .  A
C724        C725   1.384       .  A
C725        H731   1.083       .  S
S726        C727   1.726       .  A
C727        C728   1.392       .  A
C728        H732   1.082       .  S
C733        S739   1.714       .  A
C733        C738   1.386       .  A
C733        C734   1.410       .  A
C734        C735   1.410       .  A
C734        H745   1.083       .  S
C735        C744   1.382       .  A
C735        C736   1.387       .  A
C736        S742   1.694       .  A
C736        C737   1.396       .  A
C737        C738   1.395       .  A
C737        H746   1.083       .  S
C738        C741   1.367       .  A
S739        C740   1.730       .  A
C740        C741   1.383       .  A
C741        H747   1.083       .  S
S742        C743   1.722       .  A
C743        C744   1.392       .  A
C744        H748   1.083       .  S
C749        S755   1.699       .  A
C749        C754   1.387       .  A
C749        C750   1.401       .  A
C750        C751   1.400       .  A
C750        H761   1.083       .  S
C751        C760   1.372       .  A
C751        C752   1.386       .  A
C752        S758   1.713       .  A
C752        C753   1.408       .  A
C753        C754   1.408       .  A
C753        H762   1.083       .  S
C754        C757   1.383       .  A
S755        C756   1.726       .  A
C756        C757   1.390       .  A
C757        H763   1.083       .  S
S758        C759   1.725       .  A
C759        C760   1.387       .  A
C760        H764   1.083       .  S
C765        S771   1.708       .  A
C765        C770   1.387       .  A
C765        C766   1.407       .  A
C766        C767   1.405       .  A
C766        H777   1.083       .  S
C767        C776   1.380       .  A
C767        C768   1.388       .  A
C768        S774   1.691       .  A
C768        C769   1.396       .  A
C769        C770   1.395       .  A
C769        H778   1.083       .  S
C770        C773   1.367       .  A
S771        C772   1.728       .  A
C772        C773   1.381       .  A
C773        H779   1.083       .  S
S774        C775   1.726       .  A
C775        C776   1.388       .  A
C776        H780   1.083       .  S
C781        S787   1.713       .  A
C781        C786   1.387       .  A
C781        C782   1.410       .  A
C782        C783   1.409       .  A
C782        H793   1.083       .  S
C783        C792   1.383       .  A
C783        C784   1.388       .  A
C784        S790   1.691       .  A
C784        C785   1.395       .  A
C785        C786   1.393       .  A
C785        H794   1.083       .  S
C786        C789   1.366       .  A
S787        C788   1.728       .  A
C788        C789   1.380       .  A
C789        H795   1.083       .  S
S790        C791   1.723       .  A
C791        C792   1.391       .  A
C792        H796   1.083       .  S
C797        S803   1.694       .  A
C797        C802   1.388       .  A
C797        C798   1.399       .  A
C798        C799   1.397       .  A
C798        H809   1.083       .  S
C799        C808   1.369       .  A
C799        C800   1.387       .  A
C800        S806   1.705       .  A
C800        C801   1.405       .  A
C801        C802   1.403       .  A
C801        H810   1.083       .  S
C802        C805   1.378       .  A
S803        C804   1.726       .  A
C804        C805   1.387       .  A
C805        H811   1.083       .  S
S806        C807   1.725       .  A
C807        C808   1.386       .  A
C808        H812   1.083       .  S
C813        S819   1.714       .  A
C813        C818   1.386       .  A
C813        C814   1.407       .  A
C814        C815   1.408       .  A
C814        H825   1.083       .  S
C815        C824   1.377       .  A
C815        C816   1.388       .  A
C816        S822   1.692   1_545  A
C816        C817   1.392   1_545  A
C817        C818   1.393   1_565  A
C817        H826   1.084       .  S
C818        C821   1.359       .  A
S819        C820   1.726       .  A
C820        C821   1.382       .  A
C821        H827   1.084       .  S
S822        C823   1.723       .  A
C823        C824   1.389   1_565  A
C824        H828   1.083       .  S
C829        S835   1.695       .  A
C829        C834   1.387       .  A
C829        C830   1.392       .  A
C830        C831   1.394       .  A
C830        H841   1.083       .  S
C831        C840   1.359       .  A
C831        C832   1.386       .  A
C832        S838   1.717       .  A
C832        C833   1.408       .  A
C833        C834   1.409       .  A
C833        H842   1.083       .  S
C834        C837   1.376       .  A
S835        C836   1.718       .  A
C836        C837   1.392       .  A
C837        H843   1.083       .  S
S838        C839   1.727       .  A
C839        C840   1.383       .  A
C840        H844   1.084       .  S
C845        S851   1.689       .  A
C845        C850   1.388       .  A
C845        C846   1.392       .  A
C846        C847   1.391       .  A
C846        H857   1.083       .  S
C847        C856   1.361       .  A
C847        C848   1.387       .  A
C848        S854   1.710       .  A
C848        C849   1.407       .  A
C849        C850   1.407       .  A
C849        H858   1.083       .  S
C850        C853   1.378       .  A
S851        C852   1.720       .  A
C852        C853   1.389       .  A
C853        H859   1.083       .  S
S854        C855   1.727       .  A
C855        C856   1.379       .  A
C856        H860   1.084       .  S
C861        S867   1.694       .  A
C861        C866   1.388       .  A
C861        C862   1.391       .  A
C862        C863   1.393   1_545  A
C862        H873   1.083       .  S
C863        C872   1.358       .  A
C863        C864   1.386       .  A
C864        S870   1.716       .  A
C864        C865   1.407       .  A
C865        C866   1.409   1_565  A
C865        H874   1.083       .  S
C866        C869   1.375       .  A
S867        C868   1.718       .  A
C868        C869   1.391       .  A
C869        H875   1.083       .  S
S870        C871   1.726       .  A
C871        C872   1.382       .  A
C872        H876   1.084       .  S
C877        S883   1.690       .  A
C877        C882   1.387       .  A
C877        C878   1.398       .  A
C878        C879   1.396       .  A
C878        H889   1.083       .  S
C879        C888   1.372       .  A
C879        C880   1.386       .  A
C880        S886   1.717       .  A
C880        C881   1.415       .  A
C881        C882   1.413       .  A
C881        H890   1.083       .  S
C882        C885   1.391       .  A
S883        C884   1.727       .  A
C884        C885   1.396       .  A
C885        H891   1.082       .  S
S886        C887   1.733       .  A
C887        C888   1.385       .  A
C888        H892   1.083       .  S
C893        S899   1.710       .  A
C893        C898   1.387       .  A
C893        C894   1.407       .  A
C894        C895   1.407       .  A
C894        H905   1.083       .  S
C895        C904   1.379       .  A
C895        C896   1.387       .  A
C896        S902   1.695       .  A
C896        C897   1.396       .  A
C897        C898   1.396       .  A
C897        H906   1.083       .  S
C898        C901   1.367       .  A
S899        C900   1.727       .  A
C900        C901   1.384       .  A
C901        H907   1.083       .  S
S902        C903   1.723       .  A
C903        C904   1.390       .  A
C904        H908   1.083       .  S
C909        S915   1.699       .  A
C909        C914   1.386       .  A
C909        C910   1.396       .  A
C910        C911   1.397       .  A
C910        H921   1.083       .  S
C911        C920   1.366       .  A
C911        C912   1.385       .  A
C912        S918   1.725       .  A
C912        C913   1.415       .  A
C913        C914   1.416       .  A
C913        H922   1.083       .  S
C914        C917   1.387       .  A
S915        C916   1.722       .  A
C916        C917   1.398       .  A
C917        H923   1.083       .  S
S918        C919   1.732       .  A
C919        C920   1.387       .  A
C920        H924   1.083       .  S
C925        S931   1.719       .  A
C925        C930   1.385       .  A
C925        C926   1.411       .  A
C926        C927   1.411       .  A
C926        H937   1.083       .  S
C927        C936   1.380       .  A
C927        C928   1.387   1_545  A
C928        S934   1.693       .  A
C928        C929   1.392       .  A
C929        C930   1.393   1_565  A
C929        H938   1.083       .  S
C930        C933   1.360   1_545  A
S931        C932   1.730       .  A
C932        C933   1.382   1_545  A
C933        H939   1.084       .  S
S934        C935   1.721       .  A
C935        C936   1.392   1_565  A
C936        H940   1.083       .  S
C941        S947   1.702       .  A
C941        C946   1.387       .  A
C941        C942   1.398       .  A
C942        C943   1.399       .  A
C942        H953   1.083       .  S
C943        C952   1.367       .  A
C943        C944   1.386       .  A
C944        S950   1.715       .  A
C944        C945   1.407       .  A
C945        C946   1.408       .  A
C945        H954   1.083       .  S
C946        C949   1.378       .  A
S947        C948   1.725       .  A
C948        C949   1.391       .  A
C949        H955   1.083       .  S
S950        C951   1.727       .  A
C951        C952   1.387       .  A
C952        H956   1.083       .  S
C957        S963   1.716       .  A
C957        C962   1.386       .  A
C957        C958   1.406       .  A
C958        C959   1.407       .  A
C958        H969   1.083       .  S
C959        C968   1.371       .  A
C959        C960   1.388       .  A
C960        S966   1.694       .  A
C960        C961   1.389       .  A
C961        C962   1.392       .  A
C961        H970   1.083       .  S
C962        C965   1.355       .  A
S963        C964   1.726       .  A
C964        C965   1.382       .  A
C965        H971   1.084       .  S
S966        C967   1.717       .  A
C967        C968   1.389       .  A
C968        H972   1.083       .  S
C973        S979   1.693       .  A
C973        C978   1.388       .  A
C973        C974   1.395       .  A
C974        C975   1.394       .  A
C974        H985   1.083       .  S
C975        C984   1.364   1_655  A
C975        C976   1.387       .  A
C976        S982   1.708   1_655  A
C976        C977   1.405       .  A
C977        C978   1.405       .  A
C977        H986   1.083       .  S
C978        C981   1.376       .  A
S979        C980   1.722       .  A
C980        C981   1.387       .  A
C981        H987   1.083       .  S
S982        C983   1.727       .  A
C983        C984   1.382       .  A
C984        H988   1.083       .  S
C989        S995   1.717       .  A
C989        C994   1.386       .  A
C989        C990   1.408       .  A
C990        C991   1.409       .  A
C990       H1001   1.083       .  S
C991       C1000   1.377       .  A
C991        C992   1.387       .  A
C992        S998   1.697       .  A
C992        C993   1.393       .  A
C993        C994   1.395       .  A
C993       H1002   1.083       .  S
C994        C997   1.361       .  A
S995        C996   1.728       .  A
C996        C997   1.384       .  A
C997       H1003   1.083       .  S
S998        C999   1.720       .  A
C999       C1000   1.392       .  A
C1000      H1004   1.083       .  S
C1005      S1011   1.696       .  A
C1005      C1010   1.388       .  A
C1005      C1006   1.397       .  A
C1006      C1007   1.397       .  A
C1006      H1017   1.083       .  S
C1007      C1016   1.367       .  A
C1007      C1008   1.387       .  A
C1008      S1014   1.711       .  A
C1008      C1009   1.406       .  A
C1009      C1010   1.406       .  A
C1009      H1018   1.083       .  S
C1010      C1013   1.378       .  A
S1011      C1012   1.722       .  A
C1012      C1013   1.389       .  A
C1013      H1019   1.083       .  S
S1014      C1015   1.724       .  A
C1015      C1016   1.384       .  A
C1016      H1020   1.084       .  S
C1021      S1027   1.689       .  A
C1021      C1026   1.388   1_455  A
C1021      C1022   1.390       .  A
C1022      C1023   1.391       .  A
C1022      H1033   1.083       .  S
C1023      C1032   1.360       .  A
C1023      C1024   1.386   1_455  A
C1024      S1030   1.717       .  A
C1024      C1025   1.411       .  A
C1025      C1026   1.411       .  A
C1025      H1034   1.083       .  S
C1026      C1029   1.381       .  A
S1027      C1028   1.719   1_455  A
C1028      C1029   1.393       .  A
C1029      H1035   1.083       .  S
S1030      C1031   1.730   1_655  A
C1031      C1032   1.380       .  A
C1032      H1036   1.084       .  S
C1037      S1043   1.706       .  A
C1037      C1042   1.387       .  A
C1037      C1038   1.399       .  A
C1038      C1039   1.401       .  A
C1038      H1049   1.083       .  S
C1039      C1048   1.366       .  A
C1039      C1040   1.386       .  A
C1040      S1046   1.717       .  A
C1040      C1041   1.406       .  A
C1041      C1042   1.408       .  A
C1041      H1050   1.083       .  S
C1042      C1045   1.374       .  A
S1043      C1044   1.723       .  A
C1044      C1045   1.390       .  A
C1045      H1051   1.083       .  S
S1046      C1047   1.726       .  A
C1047      C1048   1.388       .  A
C1048      H1052   1.083       .  S
C1053      S1059   1.699       .  A
C1053      C1058   1.387       .  A
C1053      C1054   1.395       .  A
C1054      C1055   1.396       .  A
C1054      H1065   1.083       .  S
C1055      C1064   1.363       .  A
C1055      C1056   1.385       .  A
C1056      S1062   1.723       .  A
C1056      C1057   1.412       .  A
C1057      C1058   1.413       .  A
C1057      H1066   1.083   1_554  S
C1058      C1061   1.382       .  A
S1059      C1060   1.721       .  A
C1060      C1061   1.395       .  A
C1061      H1067   1.083       .  S
S1062      C1063   1.730       .  A
C1063      C1064   1.386       .  A
C1064      H1068   1.083       .  S
C1069      S1075   1.694       .  A
C1069      C1074   1.387       .  A
C1069      C1070   1.396       .  A
C1070      C1071   1.395       .  A
C1070      H1081   1.083       .  S
C1071      C1080   1.367       .  A
C1071      C1072   1.386       .  A
C1072      S1078   1.714       .  A
C1072      C1073   1.410       .  A
C1073      C1074   1.410       .  A
C1073      H1082   1.083       .  S
C1074      C1077   1.383       .  A
S1075      C1076   1.724       .  A
C1076      C1077   1.392       .  A
C1077      H1083   1.083       .  S
S1078      C1079   1.730       .  A
C1079      C1080   1.384       .  A
C1080      H1084   1.083       .  S
C1085      S1091   1.708       .  A
C1085      C1090   1.387       .  A
C1085      C1086   1.405       .  A
C1086      C1087   1.404       .  A
C1086      H1097   1.083       .  S
C1087      C1096   1.377   1_545  A
C1087      C1088   1.387       .  A
C1088      S1094   1.701   1_545  A
C1088      C1089   1.401       .  A
C1089      C1090   1.401       .  A
C1089      H1098   1.083       .  S
C1090      C1093   1.373       .  A
S1091      C1092   1.725       .  A
C1092      C1093   1.386       .  A
C1093      H1099   1.083       .  S
S1094      C1095   1.725       .  A
C1095      C1096   1.388       .  A
C1096      H1100   1.083   1_565  S
C1101      S1107   1.713       .  A
C1101      C1106   1.387       .  A
C1101      C1102   1.409       .  A
C1102      C1103   1.408       .  A
C1102      H1113   1.083       .  S
C1103      C1112   1.381       .  A
C1103      C1104   1.387       .  A
C1104      S1110   1.698   1_554  A
C1104      C1105   1.399   1_554  A
C1105      C1106   1.398   1_556  A
C1105      H1114   1.083       .  S
C1106      C1109   1.370       .  A
S1107      C1108   1.727       .  A
C1108      C1109   1.383       .  A
C1109      H1115   1.083   1_554  S
S1110      C1111   1.723   1_556  A
C1111      C1112   1.391       .  A
C1112      H1116   1.083       .  S
C1117      S1123   1.693       .  A
C1117      C1122   1.387       .  A
C1117      C1118   1.393       .  A
C1118      C1119   1.394       .  A
C1118      H1129   1.083       .  S
C1119      C1128   1.361       .  A
C1119      C1120   1.386       .  A
C1120      S1126   1.718       .  A
C1120      C1121   1.410       .  A
C1121      C1122   1.410       .  A
C1121      H1130   1.083       .  S
C1122      C1125   1.379       .  A
S1123      C1124   1.721       .  A
C1124      C1125   1.392       .  A
C1125      H1131   1.083       .  S
S1126      C1127   1.728       .  A
C1127      C1128   1.384       .  A
C1128      H1132   1.084       .  S
C1133      S1139   1.694       .  A
C1133      C1138   1.387       .  A
C1133      C1134   1.394       .  A
C1134      C1135   1.394       .  A
C1134      H1145   1.083       .  S
C1135      C1144   1.363       .  A
C1135      C1136   1.386       .  A
C1136      S1142   1.717       .  A
C1136      C1137   1.411       .  A
C1137      C1138   1.411       .  A
C1137      H1146   1.083       .  S
C1138      C1141   1.382       .  A
S1139      C1140   1.722       .  A
C1140      C1141   1.393       .  A
C1141      H1147   1.083       .  S
S1142      C1143   1.731       .  A
C1143      C1144   1.382       .  A
C1144      H1148   1.083       .  S
C1149      S1155   1.714       .  A
C1149      C1154   1.386       .  A
C1149      C1150   1.408       .  A
C1150      C1151   1.408       .  A
C1150      H1161   1.083       .  S
C1151      C1160   1.380       .  A
C1151      C1152   1.387       .  A
C1152      S1158   1.694       .  A
C1152      C1153   1.396       .  A
C1153      C1154   1.396       .  A
C1153      H1162   1.083       .  S
C1154      C1157   1.366       .  A
S1155      C1156   1.727       .  A
C1156      C1157   1.384       .  A
C1157      H1163   1.083       .  S
S1158      C1159   1.723       .  A
C1159      C1160   1.390       .  A
C1160      H1164   1.083       .  S
C1165      S1171   1.716       .  A
C1165      C1170   1.386       .  A
C1165      C1166   1.404       .  A
C1166      C1167   1.406       .  A
C1166      H1177   1.083       .  S
C1167      C1176   1.370       .  A
C1167      C1168   1.387       .  A
C1168      S1174   1.701       .  A
C1168      C1169   1.394       .  A
C1169      C1170   1.397       .  A
C1169      H1178   1.083       .  S
C1170      C1173   1.359       .  A
S1171      C1172   1.724       .  A
C1172      C1173   1.386       .  A
C1173      H1179   1.084       .  S
S1174      C1175   1.720       .  A
C1175      C1176   1.388       .  A
C1176      H1180   1.083       .  S
C1181      S1187   1.720       .  A
C1181      C1186   1.385       .  A
C1181      C1182   1.412       .  A
C1182      C1183   1.412       .  A
C1182      H1193   1.083       .  S
C1183      C1192   1.382       .  A
C1183      C1184   1.387       .  A
C1184      S1190   1.701       .  A
C1184      C1185   1.397       .  A
C1185      C1186   1.398       .  A
C1185      H1194   1.083       .  S
C1186      C1189   1.367       .  A
S1187      C1188   1.730       .  A
C1188      C1189   1.386       .  A
C1189      H1195   1.083       .  S
S1190      C1191   1.723       .  A
C1191      C1192   1.395       .  A
C1192      H1196   1.083       .  S
C1197      S1203   1.716       .  A
C1197      C1202   1.386       .  A
C1197      C1198   1.410       .  A
C1198      C1199   1.410       .  A
C1198      H1209   1.083       .  S
C1199      C1208   1.381   1_655  A
C1199      C1200   1.387       .  A
C1200      S1206   1.694   1_655  A
C1200      C1201   1.394       .  A
C1201      C1202   1.395       .  A
C1201      H1210   1.083       .  S
C1202      C1205   1.364       .  A
S1203      C1204   1.728       .  A
C1204      C1205   1.383       .  A
C1205      H1211   1.083       .  S
S1206      C1207   1.723       .  A
C1207      C1208   1.392       .  A
C1208      H1212   1.083       .  S
C1213      S1219   1.714       .  A
C1213      C1218   1.386       .  A
C1213      C1214   1.410       .  A
C1214      C1215   1.409       .  A
C1214      H1225   1.083       .  S
C1215      C1224   1.381       .  A
C1215      C1216   1.388       .  A
C1216      S1222   1.689       .  A
C1216      C1217   1.393       .  A
C1217      C1218   1.392       .  A
C1217      H1226   1.083       .  S
C1218      C1221   1.364       .  A
S1219      C1220   1.731       .  A
C1220      C1221   1.382       .  A
C1221      H1227   1.083       .  S
S1222      C1223   1.721       .  A
C1223      C1224   1.390       .  A
C1224      H1228   1.083       .  S
C1229      S1235   1.687       .  A
C1229      C1234   1.387       .  A
C1229      C1230   1.392       .  A
C1230      C1231   1.391       .  A
C1230      H1241   1.083       .  S
C1231      C1240   1.362       .  A
C1231      C1232   1.386       .  A
C1232      S1238   1.716       .  A
C1232      C1233   1.412       .  A
C1233      C1234   1.411       .  A
C1233      H1242   1.083       .  S
C1234      C1237   1.384       .  A
S1235      C1236   1.723       .  A
C1236      C1237   1.393       .  A
C1237      H1243   1.083       .  S
S1238      C1239   1.730       .  A
C1239      C1240   1.382       .  A
C1240      H1244   1.084       .  S
C1245      S1251   1.690       .  A
C1245      C1250   1.387       .  A
C1245      C1246   1.391   1_565  A
C1246      C1247   1.392       .  A
C1246      H1257   1.083       .  S
C1247      C1256   1.360       .  A
C1247      C1248   1.385       .  A
C1248      S1254   1.720       .  A
C1248      C1249   1.412   1_545  A
C1249      C1250   1.412       .  A
C1249      H1258   1.083       .  S
C1250      C1253   1.383       .  A
S1251      C1252   1.721       .  A
C1252      C1253   1.394       .  A
C1253      H1259   1.083       .  S
S1254      C1255   1.731       .  A
C1255      C1256   1.382       .  A
C1256      H1260   1.084       .  S
C1261      S1267   1.700       .  A
C1261      C1266   1.387   1_455  A
C1261      C1262   1.398       .  A
C1262      C1263   1.399       .  A
C1262      H1273   1.083       .  S
C1263      C1272   1.366       .  A
C1263      C1264   1.385   1_455  A
C1264      S1270   1.722       .  A
C1264      C1265   1.411       .  A
C1265      C1266   1.412       .  A
C1265      H1274   1.082       .  S
C1266      C1269   1.382       .  A
S1267      C1268   1.726   1_455  A
C1268      C1269   1.393       .  A
C1269      H1275   1.083       .  S
S1270      C1271   1.728   1_655  A
C1271      C1272   1.388       .  A
C1272      H1276   1.083       .  S
C1277      S1283   1.689       .  A
C1277      C1282   1.388       .  A
C1277      C1278   1.392       .  A
C1278      C1279   1.392       .  A
C1278      H1289   1.083       .  S
C1279      C1288   1.362       .  A
C1279      C1280   1.386       .  A
C1280      S1286   1.714       .  A
C1280      C1281   1.409       .  A
C1281      C1282   1.409       .  A
C1281      H1290   1.083       .  S
C1282      C1285   1.381       .  A
S1283      C1284   1.722       .  A
C1284      C1285   1.390       .  A
C1285      H1291   1.083       .  S
S1286      C1287   1.728       .  A
C1287      C1288   1.381       .  A
C1288      H1292   1.084       .  S
C1293      S1299   1.713       .  A
C1293      C1298   1.386       .  A
C1293      C1294   1.412       .  A
C1294      C1295   1.410       .  A
C1294      H1305   1.083       .  S
C1295      C1304   1.386       .  A
C1295      C1296   1.387       .  A
C1296      S1302   1.688       .  A
C1296      C1297   1.395       .  A
C1297      C1298   1.393       .  A
C1297      H1306   1.083       .  S
C1298      C1301   1.367       .  A
S1299      C1300   1.731       .  A
C1300      C1301   1.382       .  A
C1301      H1307   1.083       .  S
S1302      C1303   1.725       .  A
C1303      C1304   1.393       .  A
C1304      H1308   1.082       .  S
C1309      S1315   1.715       .  A
C1309      C1314   1.386       .  A
C1309      C1310   1.406       .  A
C1310      C1311   1.407       .  A
C1310      H1321   1.083       .  S
C1311      C1320   1.376       .  A
C1311      C1312   1.387       .  A
C1312      S1318   1.696       .  A
C1312      C1313   1.394       .  A
C1313      C1314   1.396       .  A
C1313      H1322   1.083       .  S
C1314      C1317   1.362       .  A
S1315      C1316   1.725       .  A
C1316      C1317   1.385       .  A
C1317      H1323   1.084       .  S
S1318      C1319   1.723       .  A
C1319      C1320   1.390       .  A
C1320      H1324   1.083       .  S
C1325      S1331   1.709       .  A
C1325      C1330   1.387       .  A
C1325      C1326   1.406       .  A
C1326      C1327   1.406       .  A
C1326      H1337   1.083       .  S
C1327      C1336   1.378       .  A
C1327      C1328   1.388       .  A
C1328      S1334   1.693       .  A
C1328      C1329   1.395       .  A
C1329      C1330   1.395       .  A
C1329      H1338   1.083       .  S
C1330      C1333   1.365       .  A
S1331      C1332   1.727       .  A
C1332      C1333   1.383       .  A
C1333      H1339   1.083       .  S
S1334      C1335   1.723       .  A
C1335      C1336   1.388       .  A
C1336      H1340   1.083       .  S
C1341      S1347   1.692       .  A
C1341      C1346   1.387       .  A
C1341      C1342   1.395       .  A
C1342      C1343   1.395       .  A
C1342      H1353   1.083       .  S
C1343      C1352   1.368       .  A
C1343      C1344   1.386   1_545  A
C1344      S1350   1.714       .  A
C1344      C1345   1.411       .  A
C1345      C1346   1.410   1_565  A
C1345      H1354   1.083       .  S
C1346      C1349   1.383       .  A
S1347      C1348   1.723       .  A
C1348      C1349   1.391       .  A
C1349      H1355   1.083       .  S
S1350      C1351   1.730       .  A
C1351      C1352   1.383   1_565  A
C1352      H1356   1.083   1_455  S
C1357      S1363   1.719       .  A
C1357      C1362   1.385       .  A
C1357      C1358   1.409       .  A
C1358      C1359   1.410       .  A
C1358      H1369   1.083       .  S
C1359      C1368   1.377       .  A
C1359      C1360   1.387       .  A
C1360      S1366   1.693       .  A
C1360      C1361   1.391       .  A
C1361      C1362   1.393       .  A
C1361      H1370   1.083       .  S
C1362      C1365   1.358       .  A
S1363      C1364   1.728       .  A
C1364      C1365   1.384       .  A
C1365      H1371   1.084       .  S
S1366      C1367   1.720       .  A
C1367      C1368   1.391       .  A
C1368      H1372   1.083       .  S
C1373      S1379   1.710       .  A
C1373      C1378   1.387       .  A
C1373      C1374   1.404       .  A
C1374      C1375   1.404   1_565  A
C1374      H1385   1.083       .  S
C1375      C1384   1.372       .  A
C1375      C1376   1.388       .  A
C1376      S1382   1.695       .  A
C1376      C1377   1.395   1_545  A
C1377      C1378   1.396       .  A
C1377      H1386   1.083       .  S
C1378      C1381   1.362       .  A
S1379      C1380   1.725       .  A
C1380      C1381   1.384       .  A
C1381      H1387   1.083       .  S
S1382      C1383   1.723       .  A
C1383      C1384   1.386       .  A
C1384      H1388   1.083       .  S
C1389      S1395   1.722       .  A
C1389      C1394   1.385       .  A
C1389      C1390   1.412       .  A
C1390      C1391   1.413       .  A
C1390      H1401   1.083       .  S
C1391      C1400   1.381       .  A
C1391      C1392   1.387       .  A
C1392      S1398   1.697       .  A
C1392      C1393   1.394       .  A
C1393      C1394   1.396       .  A
C1393      H1402   1.083       .  S
C1394      C1397   1.363       .  A
S1395      C1396   1.729       .  A
C1396      C1397   1.386       .  A
C1397      H1403   1.083       .  S
S1398      C1399   1.720       .  A
C1399      C1400   1.395       .  A
C1400      H1404   1.083       .  S
C1405      S1411   1.687       .  A
C1405      C1410   1.388   1_655  A
C1405      C1406   1.391       .  A
C1406      C1407   1.391       .  A
C1406      H1417   1.083       .  S
C1407      C1416   1.362       .  A
C1407      C1408   1.386   1_655  A
C1408      S1414   1.715       .  A
C1408      C1409   1.411       .  A
C1409      C1410   1.411       .  A
C1409      H1418   1.083       .  S
C1410      C1413   1.383       .  A
S1411      C1412   1.720   1_655  A
C1412      C1413   1.392       .  A
C1413      H1419   1.083       .  S
S1414      C1415   1.730   1_455  A
C1415      C1416   1.379       .  A
C1416      H1420   1.084       .  S
C1421      S1427   1.688       .  A
C1421      C1426   1.388       .  A
C1421      C1422   1.396       .  A
C1422      C1423   1.394       .  A
C1422      H1433   1.083       .  S
C1423      C1432   1.369       .  A
C1423      C1424   1.387       .  A
C1424      S1430   1.705       .  A
C1424      C1425   1.408       .  A
C1425      C1426   1.405       .  A
C1425      H1434   1.083       .  S
C1426      C1429   1.380       .  A
S1427      C1428   1.725       .  A
C1428      C1429   1.388       .  A
C1429      H1435   1.083       .  S
S1430      C1431   1.730       .  A
C1431      C1432   1.382       .  A
C1432      H1436   1.083       .  S
C1437      S1443   1.708       .  A
C1437      C1442   1.387       .  A
C1437      C1438   1.407       .  A
C1438      C1439   1.406       .  A
C1438      H1449   1.083   1_554  S
C1439      C1448   1.379       .  A
C1439      C1440   1.388       .  A
C1440      S1446   1.692       .  A
C1440      C1441   1.395       .  A
C1441      C1442   1.394       .  A
C1441      H1450   1.083       .  S
C1442      C1445   1.367       .  A
S1443      C1444   1.729       .  A
C1444      C1445   1.380       .  A
C1445      H1451   1.083       .  S
S1446      C1447   1.720       .  A
C1447      C1448   1.388       .  A
C1448      H1452   1.083       .  S
C1453      S1459   1.699       .  A
C1453      C1458   1.387       .  A
C1453      C1454   1.401       .  A
C1454      C1455   1.400       .  A
C1454      H1465   1.083       .  S
C1455      C1464   1.374       .  A
C1455      C1456   1.386       .  A
C1456      S1462   1.712       .  A
C1456      C1457   1.410       .  A
C1457      C1458   1.409       .  A
C1457      H1466   1.083       .  S
C1458      C1461   1.383       .  A
S1459      C1460   1.724       .  A
C1460      C1461   1.391       .  A
C1461      H1467   1.083       .  S
S1462      C1463   1.730       .  A
C1463      C1464   1.385       .  A
C1464      H1468   1.083       .  S
C1469      S1475   1.720       .  A
C1469      C1474   1.386       .  A
C1469      C1470   1.411       .  A
C1470      C1471   1.411       .  A
C1470      H1481   1.083       .  S
C1471      C1480   1.383       .  A
C1471      C1472   1.387       .  A
C1472      S1478   1.698       .  A
C1472      C1473   1.398       .  A
C1473      C1474   1.398       .  A
C1473      H1482   1.083       .  S
C1474      C1477   1.368       .  A
S1475      C1476   1.729       .  A
C1476      C1477   1.386       .  A
C1477      H1483   1.083       .  S
S1478      C1479   1.725       .  A
C1479      C1480   1.391       .  A
C1480      H1484   1.083       .  S
C1485      S1491   1.712       .  A
C1485      C1490   1.387       .  A
C1485      C1486   1.409       .  A
C1486      C1487   1.409       .  A
C1486      H1497   1.083       .  S
C1487      C1496   1.380       .  A
C1487      C1488   1.388       .  A
C1488      S1494   1.687       .  A
C1488      C1489   1.390       .  A
C1489      C1490   1.389       .  A
C1489      H1498   1.083       .  S
C1490      C1493   1.360       .  A
S1491      C1492   1.728       .  A
C1492      C1493   1.378       .  A
C1493      H1499   1.084       .  S
S1494      C1495   1.720       .  A
C1495      C1496   1.392       .  A
C1496      H1500   1.083       .  S
C1501      S1507   1.716   1_455  A
C1501      C1506   1.386       .  A
C1501      C1502   1.405       .  A
C1502      C1503   1.407       .  A
C1502      H1513   1.083       .  S
C1503      C1512   1.373       .  A
C1503      C1504   1.387       .  A
C1504      S1510   1.698       .  A
C1504      C1505   1.395       .  A
C1505      C1506   1.397       .  A
C1505      H1514   1.083       .  S
C1506      C1509   1.360       .  A
S1507      C1508   1.724       .  A
C1508      C1509   1.386   1_655  A
C1509      H1515   1.084       .  S
S1510      C1511   1.722       .  A
C1511      C1512   1.388       .  A
C1512      H1516   1.083       .  S
C1517      S1523   1.711       .  A
C1517      C1522   1.387       .  A
C1517      C1518   1.408       .  A
C1518      C1519   1.407       .  A
C1518      H1529   1.083       .  S
C1519      C1528   1.380       .  A
C1519      C1520   1.388       .  A
C1520      S1526   1.692       .  A
C1520      C1521   1.395       .  A
C1521      C1522   1.395       .  A
C1521      H1530   1.083       .  S
C1522      C1525   1.367       .  A
S1523      C1524   1.729       .  A
C1524      C1525   1.383       .  A
C1525      H1531   1.083       .  S
S1526      C1527   1.723       .  A
C1527      C1528   1.390       .  A
C1528      H1532   1.083       .  S
C1533      S1539   1.714       .  A
C1533      C1538   1.386       .  A
C1533      C1534   1.411       .  A
C1534      C1535   1.410       .  A
C1534      H1545   1.083       .  S
C1535      C1544   1.384       .  A
C1535      C1536   1.387       .  A
C1536      S1542   1.692       .  A
C1536      C1537   1.396       .  A
C1537      C1538   1.395       .  A
C1537      H1546   1.083       .  S
C1538      C1541   1.367       .  A
S1539      C1540   1.730       .  A
C1540      C1541   1.384       .  A
C1541      H1547   1.083       .  S
S1542      C1543   1.724       .  A
C1543      C1544   1.393       .  A
C1544      H1548   1.083       .  S
C1549      S1555   1.721       .  A
C1549      C1554   1.385       .  A
C1549      C1550   1.411       .  A
C1550      C1551   1.413       .  A
C1550      H1561   1.083       .  S
C1551      C1560   1.380       .  A
C1551      C1552   1.387       .  A
C1552      S1558   1.698       .  A
C1552      C1553   1.393       .  A
C1553      C1554   1.395       .  A
C1553      H1562   1.083       .  S
C1554      C1557   1.361       .  A
S1555      C1556   1.729       .  A
C1556      C1557   1.385       .  A
C1557      H1563   1.084       .  S
S1558      C1559   1.719       .  A
C1559      C1560   1.395       .  A
C1560      H1564   1.083       .  S
C1565      S1571   1.695       .  A
C1565      C1570   1.387       .  A
C1565      C1566   1.396       .  A
C1566      C1567   1.396       .  A
C1566      H1577   1.083       .  S
C1567      C1576   1.366       .  A
C1567      C1568   1.386       .  A
C1568      S1574   1.715       .  A
C1568      C1569   1.410       .  A
C1569      C1570   1.409       .  A
C1569      H1578   1.083       .  S
C1570      C1573   1.381       .  A
S1571      C1572   1.723       .  A
C1572      C1573   1.391       .  A
C1573      H1579   1.083       .  S
S1574      C1575   1.729       .  A
C1575      C1576   1.384       .  A
C1576      H1580   1.083       .  S
C1581      S1587   1.719       .  A
C1581      C1586   1.385       .  A
C1581      C1582   1.411       .  A
C1582      C1583   1.411       .  A
C1582      H1593   1.083       .  S
C1583      C1592   1.383       .  A
C1583      C1584   1.387       .  A
C1584      S1590   1.694       .  A
C1584      C1585   1.395       .  A
C1585      C1586   1.395       .  A
C1585      H1594   1.083       .  S
C1586      C1589   1.364       .  A
S1587      C1588   1.729       .  A
C1588      C1589   1.385       .  A
C1589      H1595   1.084       .  S
S1590      C1591   1.724       .  A
C1591      C1592   1.392       .  A
C1592      H1596   1.083       .  S
C1597      S1603   1.720       .  A
C1597      C1602   1.385       .  A
C1597      C1598   1.408       .  A
C1598      C1599   1.410       .  A
C1598      H1609   1.083       .  S
C1599      C1608   1.375       .  A
C1599      C1600   1.387       .  A
C1600      S1606   1.700       .  A
C1600      C1601   1.393       .  A
C1601      C1602   1.396       .  A
C1601      H1610   1.083       .  S
C1602      C1605   1.360       .  A
S1603      C1604   1.727       .  A
C1604      C1605   1.385       .  A
C1605      H1611   1.084       .  S
S1606      C1607   1.720       .  A
C1607      C1608   1.391       .  A
C1608      H1612   1.083       .  S
C1613      S1619   1.710       .  A
C1613      C1618   1.387       .  A
C1613      C1614   1.406   1_545  A
C1614      C1615   1.406       .  A
C1614      H1625   1.083       .  S
C1615      C1624   1.379       .  A
C1615      C1616   1.387       .  A
C1616      S1622   1.698       .  A
C1616      C1617   1.400       .  A
C1617      C1618   1.399   1_565  A
C1617      H1626   1.083       .  S
C1618      C1621   1.370       .  A
S1619      C1620   1.724       .  A
C1620      C1621   1.385       .  A
C1621      H1627   1.083       .  S
S1622      C1623   1.725       .  A
C1623      C1624   1.388       .  A
C1624      H1628   1.083       .  S
C1629      S1635   1.714       .  A
C1629      C1634   1.386       .  A
C1629      C1630   1.411       .  A
C1630      C1631   1.410       .  A
C1630      H1641   1.083       .  S
C1631      C1640   1.382   1_655  A
C1631      C1632   1.387       .  A
C1632      S1638   1.693   1_655  A
C1632      C1633   1.395       .  A
C1633      C1634   1.394       .  A
C1633      H1642   1.083       .  S
C1634      C1637   1.366       .  A
S1635      C1636   1.730       .  A
C1636      C1637   1.382       .  A
C1637      H1643   1.083       .  S
S1638      C1639   1.722       .  A
C1639      C1640   1.393       .  A
C1640      H1644   1.083       .  S
C1645      S1651   1.697       .  A
C1645      C1650   1.387       .  A
C1645      C1646   1.398       .  A
C1646      C1647   1.398       .  A
C1646      H1657   1.083       .  S
C1647      C1656   1.369       .  A
C1647      C1648   1.385       .  A
C1648      S1654   1.721       .  A
C1648      C1649   1.415   1_545  A
C1649      C1650   1.414   1_565  A
C1649      H1658   1.083       .  S
C1650      C1653   1.388   1_545  A
S1651      C1652   1.724   1_545  A
C1652      C1653   1.396       .  A
C1653      H1659   1.083       .  S
S1654      C1655   1.732       .  A
C1655      C1656   1.387       .  A
C1656      H1660   1.083       .  S
C1661      S1667   1.689       .  A
C1661      C1666   1.388       .  A
C1661      C1662   1.392       .  A
C1662      C1663   1.392       .  A
C1662      H1673   1.083       .  S
C1663      C1672   1.362       .  A
C1663      C1664   1.387       .  A
C1664      S1670   1.708       .  A
C1664      C1665   1.406       .  A
C1665      C1666   1.405       .  A
C1665      H1674   1.083       .  S
C1666      C1669   1.376       .  A
S1667      C1668   1.722       .  A
C1668      C1669   1.387       .  A
C1669      H1675   1.083       .  S
S1670      C1671   1.727       .  A
C1671      C1672   1.380       .  A
C1672      H1676   1.083       .  S
C1677      S1683   1.694       .  A
C1677      C1682   1.388       .  A
C1677      C1678   1.397       .  A
C1678      C1679   1.397       .  A
C1678      H1689   1.083       .  S
C1679      C1688   1.368       .  A
C1679      C1680   1.387       .  A
C1680      S1686   1.711       .  A
C1680      C1681   1.407       .  A
C1681      C1682   1.406       .  A
C1681      H1690   1.083       .  S
C1682      C1685   1.379       .  A
S1683      C1684   1.724       .  A
C1684      C1685   1.389       .  A
C1685      H1691   1.083       .  S
S1686      C1687   1.726       .  A
C1687      C1688   1.384       .  A
C1688      H1692   1.084       .  S
