geometry optimzed in LAMMPS
_audit_creation_date              2020-11-30 
_audit_creation_method            'lammps2cif' 
_symmetry_space_group_name_H-M    'P1' 
_symmetry_Int_Tables_number       1 
_symmetry_cell_setting            triclinic 
loop_ 
_symmetry_equiv_pos_as_xyz 
  x,y,z 
_cell_length_a                    35.33962330673672 
_cell_length_b                    35.40656785145599 
_cell_length_c                    35.42183085220002 
_cell_angle_alpha                 90.25979845751442 
_cell_angle_beta                  89.94409335882324 
_cell_angle_gamma                 89.82278602003709 
loop_ 
_atom_site_label 
_atom_site_type_symbol 
_atom_site_fract_x 
_atom_site_fract_y 
_atom_site_fract_z 
_atom_site_charge 
C1          C  0.14136847  0.81978519  0.95859900     0.03810
C2          C  0.15815872  0.81240983  0.99318716    -0.12340
C3          C  0.14583239  0.83031936  0.02596633     0.01310
C4          C  0.11705803  0.85745356  0.02406008    -0.10870
C5          C  0.10120751  0.86659929  0.98883785     0.03800
C6          C  0.11350994  0.84777750  0.95608214    -0.10290
H7          H  0.18041377  0.79130223  0.99494837     0.09400
H8          H  0.10570338  0.86960354  0.04972585     0.06920
H9          H  0.09930319  0.85257573  0.92941038     0.06770
C10         C  0.33196517  0.59389475  0.02972374     0.03810
C11         C  0.33319072  0.61222059  0.99431473    -0.12340
C12         C  0.33401154  0.59100890  0.96035205     0.01310
C13         C  0.33354142  0.55138193  0.96217519    -0.10870
C14         C  0.33227402  0.53285665  0.99713990     0.03800
C15         C  0.33150565  0.55417963  0.03072931    -0.10290
H16         H  0.33333686  0.64280122  0.99318857     0.09400
H17         H  0.33399023  0.53489634  0.93629828     0.06920
H18         H  0.33043014  0.53983245  0.05768853     0.06770
C19         C  0.97082336  0.13583174  0.04054903     0.03810
C20         C  0.96370462  0.15329671  0.00623391    -0.12340
C21         C  0.97284658  0.13538540  0.97249858     0.01310
C22         C  0.99189576  0.10077552  0.97281880    -0.10870
C23         C  0.00202327  0.08452507  0.00744801     0.03800
C24         C  0.99065962  0.10159842  0.04152417    -0.10290
H25         H  0.94707867  0.17915629  0.00567953     0.09400
H26         H  0.99983992  0.08730683  0.94639770     0.06920
H27         H  0.99776942  0.08884954  0.06838463     0.06770
C28         C  0.77055517  0.36074184  0.97163619     0.03810
C29         C  0.77093427  0.34227350  0.00679803    -0.12340
C30         C  0.77070882  0.36328518  0.04070226     0.01310
C31         C  0.77015028  0.40293214  0.03916555    -0.10870
C32         C  0.76979334  0.42155930  0.00421888     0.03800
C33         C  0.77000038  0.40038202  0.97060217    -0.10290
H34         H  0.77153229  0.31167934  0.00777373     0.09400
H35         H  0.77007944  0.41927807  0.06512847     0.06920
H36         H  0.76982506  0.41476118  0.94363407     0.06770
C37         C  0.88857750  0.95030484  0.08800737     0.03810
C38         C  0.87369097  0.98619788  0.09382522    -0.12340
C39         C  0.89348861  0.01804270  0.08286520     0.01310
C40         C  0.92784585  0.01428407  0.06369043    -0.10870
C41         C  0.94155639  0.97804193  0.05477045     0.03800
C42         C  0.92224965  0.94585071  0.06759579    -0.10290
H43         H  0.84758559  0.98953005  0.10974370     0.09400
H44         H  0.94247340  0.03921819  0.05392892     0.06920
H45         H  0.93270013  0.91778146  0.06089262     0.06770
C46         C  0.66438037  0.01436701  0.27923106     0.03810
C47         C  0.68452695  0.97978675  0.28011724    -0.12340
C48         C  0.66495602  0.94502117  0.28133738     0.01310
C49         C  0.62526832  0.94515946  0.28161439    -0.10870
C50         C  0.60504411  0.97927676  0.28070066     0.03800
C51         C  0.62461879  0.01373430  0.27953005    -0.10290
H52         H  0.71519035  0.97992461  0.27971266     0.09400
H53         H  0.61005079  0.91861583  0.28239230     0.06920
H54         H  0.60888421  0.04006294  0.27875964     0.06770
C55         C  0.21617041  0.00022917  0.91555496     0.03810
C56         C  0.22973042  0.96420444  0.90810066    -0.12340
C57         C  0.20815405  0.93271854  0.91654572     0.01310
C58         C  0.17496895  0.93665887  0.93771724    -0.10870
C59         C  0.16335498  0.97292505  0.94930281     0.03800
C60         C  0.18325607  0.00495846  0.93704205    -0.10290
H61         H  0.25532257  0.96077072  0.89136696     0.09400
H62         H  0.15924054  0.91189755  0.94607915     0.06920
H63         H  0.17388395  0.03304479  0.94505174     0.06770
C64         C  0.43189997  0.93764255  0.71569032     0.03810
C65         C  0.41191616  0.97242109  0.71621344    -0.12340
C66         C  0.43169754  0.00717801  0.71731331     0.01310
C67         C  0.47139745  0.00670694  0.71794283    -0.10870
C68         C  0.49138934  0.97241466  0.71750125     0.03800
C69         C  0.47163524  0.93809422  0.71635870    -0.10290
H70         H  0.38125688  0.97243443  0.71594242     0.09400
H71         H  0.48681717  0.03313259  0.71895103     0.06920
H72         H  0.48724056  0.91166958  0.71615519     0.06770
C73         C  0.97656764  0.80439904  0.03587994     0.03810
C74         C  0.99236640  0.83987363  0.02969172    -0.12340
C75         C  0.00281738  0.85006608  0.99302779     0.01310
C76         C  0.99374005  0.82638597  0.96243486    -0.10870
C77         C  0.97661763  0.79142287  0.96931086     0.03800
C78         C  0.97200597  0.77919452  0.00616507    -0.10290
H79         H  0.99707866  0.85894322  0.05316026     0.09400
H80         H  0.99983985  0.83511519  0.93382206     0.06920
H81         H  0.95809310  0.75236218  0.01129959     0.06770
C82         C  0.76744346  0.59816752  0.03327189     0.03810
C83         C  0.76767245  0.55852377  0.03385095    -0.12340
C84         C  0.76849361  0.53754580  0.00015408     0.01310
C85         C  0.76905310  0.55623931  0.96527699    -0.10870
C86         C  0.76883802  0.59587747  0.96358447     0.03800
C87         C  0.76806864  0.61687995  0.99787254    -0.10290
H88         H  0.76734411  0.54388691  0.06068348     0.09400
H89         H  0.76977300  0.53984568  0.93934694     0.06920
H90         H  0.76809287  0.64746214  0.99701699     0.06770
C91         C  0.13465164  0.12340280  0.96486337     0.03810
C92         C  0.11045990  0.09228513  0.96688794    -0.12340
C93         C  0.10074255  0.07754588  0.00239397     0.01310
C94         C  0.11617646  0.09322977  0.03542746    -0.10870
C95         C  0.14233076  0.12263527  0.03283033     0.03800
C96         C  0.15068066  0.13790324  0.99765201    -0.10290
H97         H  0.09709207  0.08164024  0.94145316     0.09400
H98         H  0.10748992  0.08299139  0.06290900     0.06920
H99         H  0.17001290  0.16158275  0.99569292     0.06770
C100        C  0.32732592  0.35617674  0.96625234     0.03810
C101        C  0.32840450  0.39587287  0.96585707    -0.12340
C102        C  0.32992086  0.41659980  0.99977088     0.01310
C103        C  0.33038675  0.39746103  0.03443100    -0.10870
C104        C  0.32933887  0.35780719  0.03557808     0.03800
C105        C  0.32778248  0.33722391  0.00130849    -0.10290
H106        H  0.32797189  0.41067118  0.93912400     0.09400
H107        H  0.33144364  0.41347883  0.06057447     0.06920
H108        H  0.32680242  0.30664144  0.00192168     0.06770
C109        C  0.89813510  0.93720696  0.92076709     0.03810
C110        C  0.93043941  0.93756503  0.94345533    -0.12340
C111        C  0.94487945  0.97230224  0.95610667     0.01310
C112        C  0.92811247  0.00639021  0.94429961    -0.10870
C113        C  0.89582189  0.00530578  0.92150875     0.03800
C114        C  0.88035522  0.97084118  0.91121384    -0.10290
H115        H  0.94329065  0.91118387  0.95224384     0.09400
H116        H  0.93920073  0.03331730  0.95379791     0.06920
H117        H  0.85573303  0.97023807  0.89286481     0.06770
C118        C  0.66545058  0.01186862  0.72389431     0.03810
C119        C  0.62582428  0.00998511  0.72224129    -0.12340
C120        C  0.60744549  0.97491807  0.72098184     0.01310
C121        C  0.62881129  0.94143071  0.72134724    -0.10870
C122        C  0.66848762  0.94269370  0.72298403     0.03800
C123        C  0.68676781  0.97807425  0.72427696    -0.10290
H124        H  0.60925905  0.03582180  0.72207895     0.09400
H125        H  0.61453642  0.91437097  0.72047731     0.06920
H126        H  0.71737522  0.97930237  0.72572373     0.06770
C127        C  0.20909875  0.01589601  0.08361334     0.03810
C128        C  0.17660010  0.01481101  0.06122948    -0.12340
C129        C  0.16232524  0.97999731  0.04885552     0.01310
C130        C  0.18004744  0.94638471  0.06001347    -0.10870
C131        C  0.21300834  0.94787566  0.08182476     0.03800
C132        C  0.22724118  0.98254016  0.09349638    -0.10290
H133        H  0.16434648  0.04086209  0.05147684     0.09400
H134        H  0.16985500  0.91938037  0.04972476     0.06920
H135        H  0.25184297  0.98354070  0.11179906     0.06770
C136        C  0.42838486  0.94569491  0.27909139     0.03810
C137        C  0.46817821  0.94508873  0.27910242    -0.12340
C138        C  0.48885258  0.97888433  0.28110610     0.01310
C139        C  0.46974400  0.01359064  0.28314676    -0.10870
C140        C  0.43009447  0.01504155  0.28318367     0.03800
C141        C  0.40937950  0.98092192  0.28110909    -0.10290
H142        H  0.48308057  0.91831185  0.27746021     0.09400
H143        H  0.48582599  0.03960492  0.28455729     0.06920
H144        H  0.37872696  0.98178723  0.28092222     0.06770
C145        C  0.01152464  0.04616071  0.83986309     0.03810
C146        C  0.04222744  0.05614542  0.81772043    -0.12340
C147        C  0.07890757  0.05265913  0.83139778     0.01310
C148        C  0.08541359  0.03337035  0.86521157    -0.10870
C149        C  0.05453225  0.01987260  0.88609538     0.03800
C150        C  0.01738613  0.02809835  0.87443469    -0.10290
H151        H  0.03728854  0.07078421  0.79128671     0.09400
H152        H  0.11411420  0.02805634  0.87465517     0.06920
H153        H  0.99334892  0.01887657  0.89098928     0.06770
C154        C  0.01103376  0.25369479  0.62100775     0.03810
C155        C  0.04566477  0.25205835  0.64097775    -0.12340
C156        C  0.08058400  0.25169218  0.62140165     0.01310
C157        C  0.08054321  0.25292476  0.58180586    -0.10870
C158        C  0.04639972  0.25453091  0.56167770     0.03800
C159        C  0.01178970  0.25490972  0.58132140    -0.10290
H160        H  0.04543958  0.25097365  0.67154774     0.09400
H161        H  0.10718637  0.25257997  0.56657947     0.06920
H162        H  0.98544070  0.25605647  0.56570212     0.06770
C163        C  0.08354479  0.88509068  0.83531987     0.03810
C164        C  0.08901081  0.90716828  0.86776365    -0.12340
C165        C  0.05731098  0.92165593  0.88713946     0.01310
C166        C  0.02059613  0.91294085  0.87459187    -0.10870
C167        C  0.01597185  0.89226596  0.84124968     0.03800
C168        C  0.04732380  0.87919296  0.82163304    -0.10290
H169        H  0.11742300  0.91382195  0.87712401     0.09400
H170        H  0.99598466  0.92423528  0.88909477     0.06920
H171        H  0.04336220  0.86207917  0.79640415     0.06770
C172        C  0.01743160  0.69534827  0.61380987     0.03810
C173        C  0.01732468  0.69523994  0.57410528    -0.12340
C174        C  0.05142546  0.69325072  0.55370724     0.01310
C175        C  0.08598784  0.69130521  0.57308902    -0.10870
C176        C  0.08695550  0.69135662  0.61270381     0.03800
C177        C  0.05249192  0.69341798  0.63306093    -0.10290
H178        H  0.99067276  0.69682097  0.55904143     0.09400
H179        H  0.11224849  0.68991350  0.55726199     0.06920
H180        H  0.05296238  0.69366829  0.66364981     0.06770
C181        C  0.07843843  0.86645295  0.13585429     0.03810
C182        C  0.04202412  0.85178651  0.13960301    -0.12340
C183        C  0.01077924  0.87462865  0.13335239     0.01310
C184        C  0.01484494  0.90817225  0.11342434    -0.10870
C185        C  0.05121139  0.92072597  0.10386395     0.03800
C186        C  0.08312812  0.90042271  0.11612499    -0.10290
H187        H  0.03720815  0.82617148  0.15543280     0.09400
H188        H  0.99065167  0.92677768  0.11021489     0.06920
H189        H  0.11096877  0.91295070  0.11376067     0.06770
C190        C  0.08452748  0.69505020  0.37734219     0.03810
C191        C  0.08479791  0.69419811  0.41703883    -0.12340
C192        C  0.05073586  0.69430021  0.43758542     0.01310
C193        C  0.01603796  0.69522801  0.41836611    -0.10870
C194        C  0.01488711  0.69612456  0.37876851     0.03800
C195        C  0.04932441  0.69604752  0.35826270    -0.10290
H196        H  0.11155634  0.69360112  0.43198488     0.09400
H197        H  0.98982147  0.69542706  0.43431472     0.06920
H198        H  0.04873316  0.69692722  0.32769387     0.06770
C199        C  0.01263602  0.04222643  0.19189418     0.03810
C200        C  0.01568952  0.02521973  0.15625335    -0.12340
C201        C  0.05160444  0.01641452  0.14178570     0.01310
C202        C  0.08412003  0.02682153  0.16166048    -0.10870
C203        C  0.08042025  0.04463380  0.19673017     0.03800
C204        C  0.04495461  0.04892406  0.21315409    -0.10290
H205        H  0.99047227  0.01947904  0.13980535     0.09400
H206        H  0.11190123  0.02247679  0.14932211     0.06920
H207        H  0.04256197  0.06443661  0.23959804     0.06770
C208        C  0.08209736  0.25993063  0.38562373     0.03810
C209        C  0.08215296  0.25901637  0.42534124    -0.12340
C210        C  0.04793888  0.25775213  0.44562353     0.01310
C211        C  0.01341667  0.25739949  0.42611665    -0.10870
C212        C  0.01261308  0.25827278  0.38653954     0.03800
C213        C  0.04709689  0.25950777  0.36630136    -0.10290
H214        H  0.10881074  0.25916576  0.44046923     0.09400
H215        H  0.98707266  0.25632446  0.44180933     0.06920
H216        H  0.04669809  0.25998212  0.33571369     0.06770
C217        C  0.40276199  0.51863150  0.40764109     0.03810
C218        C  0.43308417  0.51180960  0.43189270    -0.12340
C219        C  0.43999956  0.47468814  0.44398654     0.01310
C220        C  0.41831722  0.44455317  0.42963813    -0.10870
C221        C  0.38806910  0.45203114  0.40523466     0.03800
C222        C  0.37945191  0.48923088  0.39645563    -0.10290
H223        H  0.44959900  0.53518890  0.44279495     0.09400
H224        H  0.42368355  0.41591143  0.43897094     0.06920
H225        H  0.35499572  0.49555219  0.37902501     0.06770
C226        C  0.16481896  0.44274116  0.21571568     0.03810
C227        C  0.18591805  0.47667735  0.21438705    -0.12340
C228        C  0.16734779  0.51219607  0.21371644     0.01310
C229        C  0.12753495  0.51326557  0.21447530    -0.10870
C230        C  0.10641434  0.47968971  0.21584028     0.03800
C231        C  0.12516111  0.44470249  0.21643512    -0.10290
H232        H  0.21655844  0.47545672  0.21403731     0.09400
H233        H  0.11296072  0.54025643  0.21413535     0.06920
H234        H  0.10878708  0.41887168  0.21759537     0.06770
O235        O  0.25845927  0.74593667  0.13339236    -0.85810
O236        O  0.21783910  0.70363257  0.33620124    -0.85980
O237        O  0.20783656  0.64495658  0.21760822    -0.87640
O238        O  0.18599562  0.76553287  0.23315168    -0.86400
O239        O  0.21744679  0.82086126  0.24572202    -0.85990
O240        O  0.26270499  0.61051831  0.21951248    -0.87360
O241        O  0.18225009  0.70086772  0.28228306    -0.85840
O242        O  0.20502852  0.73117434  0.16740949    -0.85420
Zr243      Zr  0.22642906  0.71119672  0.23047399     2.84310
O244        O  0.24405183  0.75197507  0.28112653    -1.07400
O245        O  0.27543986  0.69087754  0.18928405    -1.08130
C246        C  0.22231422  0.74526452  0.13837468     1.07300
C247        C  0.18585744  0.70026568  0.31848322     1.07240
C248        C  0.22639400  0.61329063  0.21656659     1.10220
C249        C  0.18815040  0.80177062  0.23496603     1.08000
H250        H  0.25065431  0.65153454  0.28058492     0.33560
O251        O  0.26397629  0.67275611  0.26992728    -1.28350
H252        H  0.24944165  0.77635588  0.19666175     0.33230
O253        O  0.26555048  0.76068387  0.21177890    -1.30030
O254        O  0.34209921  0.71068681  0.35275689    -0.85800
O255        O  0.38079015  0.75495168  0.15214184    -0.87300
O256        O  0.33076975  0.62454361  0.28651519    -0.85880
O257        O  0.27062878  0.82114357  0.32647878    -0.85930
O258        O  0.27817227  0.83897693  0.20211942    -0.85640
O259        O  0.32272364  0.63689452  0.16183541    -0.85450
O260        O  0.40591166  0.68797449  0.26864606    -0.85820
O261        O  0.38837125  0.81306654  0.26696243    -0.85280
O262        O  0.37755853  0.63648501  0.24201170    -0.86340
O263        O  0.33360271  0.84778350  0.26900057    -0.85500
O264        O  0.30983301  0.65616919  0.33862001    -0.85900
O265        O  0.32437723  0.69077769  0.12646999    -0.85620
O266        O  0.30245806  0.80615587  0.15099703    -0.85270
O267        O  0.27129149  0.76658140  0.36089773    -0.85680
O268        O  0.39332468  0.73200843  0.32028240    -0.85980
O269        O  0.41540233  0.75725075  0.20662111    -0.87320
Zr270      Zr  0.28433403  0.71537722  0.31663124     2.83100
Zr271      Zr  0.31477270  0.74223158  0.17151845     2.83500
Zr272      Zr  0.31381612  0.65626982  0.22871885     2.84090
Zr273      Zr  0.28272388  0.80230898  0.25985138     2.83360
Zr274      Zr  0.37087655  0.74573523  0.25771348     2.84220
O275        O  0.33433868  0.78415724  0.22015100    -1.07890
O276        O  0.31041721  0.71759661  0.25537004    -1.07390
C277        C  0.37757146  0.71789599  0.34957773     1.07270
C278        C  0.41234398  0.75840223  0.17043667     1.09890
C279        C  0.32796075  0.62920552  0.32236901     1.07450
C280        C  0.26878091  0.80273443  0.35805874     1.07800
C281        C  0.28571520  0.83456981  0.16665520     1.07390
C282        C  0.32540216  0.65455986  0.12993396     1.06940
C283        C  0.40436673  0.65267053  0.26018305     1.07370
C284        C  0.36995524  0.84472791  0.26996069     1.06880
H285        H  0.37593303  0.69418704  0.19409008     0.33560
O286        O  0.35464509  0.70419210  0.20807970    -1.28990
H287        H  0.33304937  0.78077535  0.31970182     0.33580
O288        O  0.32290884  0.76643716  0.29879165    -1.30370
C289        C  0.47282615  0.29981929  0.46775527     0.03810
C290        C  0.46450083  0.31493329  0.50358110    -0.12340
C291        C  0.47221567  0.29368063  0.53605028     0.01310
C292        C  0.49306943  0.26005236  0.53269791    -0.10870
C293        C  0.50286909  0.24611405  0.49739056     0.03800
C294        C  0.49437929  0.26645303  0.46516019    -0.10290
H295        H  0.44622775  0.33949610  0.50578520     0.09400
H296        H  0.49764241  0.24214876  0.55705064     0.06920
H297        H  0.49991377  0.25324894  0.43802490     0.06770
C298        C  0.27156750  0.09387602  0.46590464     0.03810
C299        C  0.27043526  0.11235613  0.50134347    -0.12340
C300        C  0.26959628  0.09133715  0.53515298     0.01310
C301        C  0.26997101  0.05173918  0.53327964    -0.10870
C302        C  0.27111057  0.03295432  0.49831881     0.03800
C303        C  0.27191883  0.05408777  0.46473068    -0.10290
H304        H  0.27027374  0.14294713  0.50261138     0.09400
H305        H  0.26940416  0.03546300  0.55914069     0.06920
H306        H  0.27280700  0.03958226  0.43772225     0.06770
O307        O  0.28497312  0.10965809  0.79261124    -0.85810
O308        O  0.31764849  0.31316682  0.83394052    -0.85980
O309        O  0.37892089  0.19675382  0.84551284    -0.87640
O310        O  0.25279024  0.19767331  0.86102864    -0.86400
O311        O  0.20147921  0.22152133  0.82852269    -0.85990
O312        O  0.41435018  0.19624260  0.79136423    -0.87360
O313        O  0.31884225  0.25977375  0.87026468    -0.85840
O314        O  0.30267561  0.14289843  0.84565071    -0.85420
Zr315      Zr  0.31196268  0.20747003  0.82599467     2.84310
O316        O  0.27161768  0.25777034  0.80668772    -1.07400
O317        O  0.33550766  0.16784545  0.77696923    -1.08130
C318        C  0.29019624  0.11318603  0.82860210     1.07300
C319        C  0.31992501  0.29591040  0.86613652     1.07240
C320        C  0.41095815  0.19445676  0.82753132     1.10220
C321        C  0.21689329  0.20344849  0.85600144     1.08000
H322        H  0.37129826  0.25809930  0.80386538     0.33560
O323        O  0.35074529  0.24718509  0.78959329    -1.28350
H324        H  0.24935580  0.17047176  0.79914640     0.33230
O325        O  0.26475485  0.18727741  0.78455066    -1.30030
O326        O  0.32384671  0.32512608  0.70755085    -0.85800
O327        O  0.27505145  0.12825025  0.66965148    -0.87300
O328        O  0.40588879  0.26571036  0.73327550    -0.85880
O329        O  0.20340413  0.30183845  0.77761763    -0.85930
O330        O  0.18743525  0.17708486  0.76617207    -0.85640
O331        O  0.39138839  0.14136994  0.72753738    -0.85450
O332        O  0.33877966  0.25031689  0.64620376    -0.85820
O333        O  0.21420808  0.24127954  0.66093743    -0.85280
O334        O  0.39062868  0.23305267  0.68019722    -0.86340
O335        O  0.17858533  0.24434540  0.71484440    -0.85500
O336        O  0.37105615  0.31644475  0.75273236    -0.85900
O337        O  0.33825597  0.10458680  0.72596503    -0.85620
O338        O  0.22278624  0.12566335  0.74714368    -0.85270
O339        O  0.25722848  0.33763324  0.77703068    -0.85680
O340        O  0.29252894  0.29677444  0.65892918    -0.85980
O341        O  0.27291405  0.18251424  0.63493277    -0.87320
Zr342      Zr  0.30902355  0.29356521  0.76704379     2.83100
Zr343      Zr  0.28617865  0.14808257  0.73589791     2.83500
Zr344      Zr  0.37036041  0.20768798  0.73960110     2.84090
Zr345      Zr  0.22360225  0.23540787  0.76562326     2.83360
Zr346      Zr  0.28159968  0.23383144  0.67984453     2.84220
O347        O  0.24340722  0.19542979  0.71510388    -1.07890
O348        O  0.30817257  0.23222602  0.74109024    -1.07390
C349        C  0.31376611  0.32246290  0.67270159     1.07270
C350        C  0.27214583  0.14633338  0.63802467     1.09890
C351        C  0.40121588  0.30122977  0.73952869     1.07450
C352        C  0.22111539  0.33391293  0.77942440     1.07800
C353        C  0.19245685  0.14135175  0.76011464     1.07390
C354        C  0.37432466  0.10899479  0.72458750     1.06940
C355        C  0.37461464  0.24878152  0.65186622     1.07370
C356        C  0.18219525  0.24447969  0.67870938     1.06880
H357        H  0.33573150  0.17229501  0.67585530     0.33560
O358        O  0.32456622  0.18571822  0.69691603    -1.28990
H359        H  0.24497076  0.29589666  0.71617897     0.33580
O360        O  0.25939333  0.27523993  0.72665891    -1.30370
C361        C  0.47061325  0.64928577  0.46097586     0.03810
C362        C  0.46330495  0.66123332  0.49759832    -0.12340
C363        C  0.47422708  0.63938685  0.52808238     0.01310
C364        C  0.49591772  0.60683712  0.52232216    -0.10870
C365        C  0.50663391  0.59659403  0.48544754     0.03800
C366        C  0.49304398  0.61725567  0.45451334    -0.10290
H367        H  0.44539015  0.68581642  0.50231768     0.09400
H368        H  0.50581113  0.59074374  0.54626272     0.06920
H369        H  0.50054994  0.60905452  0.42595527     0.06770
C370        C  0.27112307  0.85633001  0.53078907     0.03810
C371        C  0.26891057  0.83714266  0.49567430    -0.12340
C372        C  0.26739644  0.85753576  0.46139144     0.01310
C373        C  0.26822027  0.89716076  0.46256515    -0.10870
C374        C  0.27044015  0.91657348  0.49712292     0.03800
C375        C  0.27188665  0.89610286  0.53108063    -0.10290
H376        H  0.26845600  0.80654577  0.49502425     0.09400
H377        H  0.26718480  0.91298937  0.43643958     0.06920
H378        H  0.27361350  0.91114947  0.55774805     0.06770
C379        C  0.37867405  0.42768186  0.57331669     0.03810
C380        C  0.41250107  0.42907713  0.55284814    -0.12340
C381        C  0.42785803  0.46423846  0.54322679     0.01310
C382        C  0.41061152  0.49774987  0.55601894    -0.10870
C383        C  0.37723060  0.49576215  0.57713106     0.03800
C384        C  0.36064547  0.46096491  0.58403193    -0.10290
H385        H  0.42599448  0.40310714  0.54354770     0.09400
H386        H  0.42275177  0.52499829  0.54928465     0.06920
H387        H  0.33531227  0.45973165  0.60137187     0.06770
C388        C  0.16641398  0.43713348  0.78260548     0.03810
C389        C  0.18744349  0.47106171  0.78072092    -0.12340
C390        C  0.16876936  0.50648091  0.77934307     0.01310
C391        C  0.12900360  0.50750288  0.77981551    -0.10870
C392        C  0.10797454  0.47394993  0.78163336     0.03800
C393        C  0.12674802  0.43900937  0.78303825    -0.10290
H394        H  0.21808419  0.46990062  0.78016706     0.09400
H395        H  0.11438165  0.53444399  0.77863758     0.06920
H396        H  0.11040247  0.41316639  0.78430003     0.06770
O397        O  0.25739266  0.74574644  0.85085349    -0.85810
O398        O  0.22161115  0.69657287  0.65032223    -0.85980
O399        O  0.19336446  0.76239953  0.76438618    -0.87640
O400        O  0.21040162  0.63866825  0.76668671    -0.86400
O401        O  0.26443350  0.60302837  0.76926622    -0.85990
O402        O  0.22535582  0.81476895  0.74555596    -0.87360
O403        O  0.18628344  0.69378338  0.70439114    -0.85840
O404        O  0.20659308  0.72486524  0.81683829    -0.85420
Zr405      Zr  0.22978229  0.70524038  0.75629374     2.84310
O406        O  0.26592693  0.66659896  0.71851099    -1.07400
O407        O  0.29087180  0.73205069  0.75589829    -1.08130
C408        C  0.22180043  0.74085602  0.84542271     1.07300
C409        C  0.18973842  0.69316956  0.66823252     1.07240
C410        C  0.19621104  0.79814005  0.75919577     1.10220
C411        C  0.22818069  0.60672665  0.77006980     1.08000
H412        H  0.22700102  0.75691623  0.69329455     0.33560
O413        O  0.24786215  0.74634886  0.70738013    -1.28350
H414        H  0.26513802  0.66999082  0.81949459     0.33230
O415        O  0.27596912  0.68401533  0.79882080    -1.30030
O416        O  0.34655433  0.70214831  0.63464606    -0.85800
O417        O  0.38328971  0.74375434  0.83755284    -0.87300
O418        O  0.28005381  0.81349675  0.66349610    -0.85880
O419        O  0.31670877  0.60964599  0.70226614    -0.85930
O420        O  0.32832758  0.62780240  0.82556791    -0.85640
O421        O  0.27424481  0.82574668  0.78917182    -0.85450
O422        O  0.39442565  0.80327877  0.72084904    -0.85820
O423        O  0.41382896  0.67947787  0.72677826    -0.85280
O424        O  0.33981041  0.83822519  0.72103103    -0.86340
O425        O  0.37896181  0.62682019  0.74294817    -0.85500
O426        O  0.27981959  0.76017751  0.62667091    -0.85900
O427        O  0.29719486  0.79464670  0.84044527    -0.85620
O428        O  0.32713804  0.68183404  0.86126553    -0.85270
O429        O  0.29919506  0.64351697  0.64978708    -0.85680
O430        O  0.39790624  0.72270086  0.66899710    -0.85980
O431        O  0.41973852  0.74538932  0.78413172    -0.87320
Zr432      Zr  0.28792311  0.70793116  0.67056816     2.83100
Zr433      Zr  0.31637804  0.73360036  0.81754811     2.83500
Zr434      Zr  0.28850931  0.79344821  0.73028996     2.84090
Zr435      Zr  0.31571536  0.64761815  0.75956519     2.83360
Zr436      Zr  0.37562621  0.73663100  0.73222200     2.84220
O437        O  0.35639376  0.69603403  0.78208668    -1.07890
O438        O  0.32737225  0.75847554  0.69096062    -1.07390
C439        C  0.38247367  0.70692571  0.63995621     1.07270
C440        C  0.41562677  0.74650335  0.82024278     1.09890
C441        C  0.27822264  0.79632014  0.63105178     1.07450
C442        C  0.31143919  0.61346138  0.66635302     1.07800
C443        C  0.32995540  0.64574407  0.85757705     1.07390
C444        C  0.27950244  0.82208634  0.82490122     1.06940
C445        C  0.37607037  0.83506896  0.71899766     1.07370
C446        C  0.40823201  0.64350429  0.72913590     1.06880
H447        H  0.35165548  0.79660058  0.78231076     0.33560
O448        O  0.33803715  0.77565923  0.77131211    -1.28990
H449        H  0.35057181  0.67250335  0.69629582     0.33580
O450        O  0.33522252  0.68850931  0.71201200    -1.30370
C451        C  0.82502290  0.50978990  0.43126492     0.03810
C452        C  0.85928342  0.49943523  0.44793815    -0.12340
C453        C  0.86510657  0.46193937  0.45855379     0.01310
C454        C  0.83831532  0.43450832  0.44863952    -0.10870
C455        C  0.80427303  0.44522834  0.43116892     0.03800
C456        C  0.79653788  0.48332782  0.42605074    -0.10290
H457        H  0.88044854  0.52072493  0.45396507     0.09400
H458        H  0.84374464  0.40514168  0.45528451     0.06920
H459        H  0.77044933  0.49174200  0.41225846     0.06770
C460        C  0.92961916  0.51340819  0.22053095     0.03810
C461        C  0.96935070  0.51364223  0.21939490    -0.12340
C462        C  0.99001335  0.47971363  0.21877452     0.01310
C463        C  0.97082979  0.44500261  0.21929008    -0.10870
C464        C  0.93108400  0.44376893  0.22044153     0.03800
C465        C  0.91049426  0.47823772  0.22108828    -0.10290
H466        H  0.98428127  0.54035491  0.21904543     0.09400
H467        H  0.98690947  0.41886596  0.21888516     0.06920
H468        H  0.87985705  0.47769667  0.22210595     0.06770
C469        C  0.58334603  0.55946768  0.33556181     0.03810
C470        C  0.55090546  0.56946845  0.31580654    -0.12340
C471        C  0.51543578  0.56103730  0.33012924     0.01310
C472        C  0.51192149  0.54076295  0.36364721    -0.10870
C473        C  0.54442637  0.52866230  0.38264192     0.03800
C474        C  0.58039146  0.53902922  0.36924803    -0.10290
H475        H  0.55320641  0.58676103  0.29066060     0.09400
H476        H  0.48409843  0.53318745  0.37389771     0.06920
H477        H  0.60574819  0.52988248  0.38381542     0.06770
C478        C  0.58396521  0.76025036  0.11501064     0.03810
C479        C  0.54902678  0.76162403  0.13444029    -0.12340
C480        C  0.51452869  0.76219621  0.11429382     0.01310
C481        C  0.51527671  0.76131073  0.07468309    -0.10870
C482        C  0.54980584  0.75991164  0.05512488     0.03800
C483        C  0.58400475  0.75939627  0.07533162    -0.10290
H484        H  0.54868094  0.76208061  0.16503465     0.09400
H485        H  0.48891728  0.76157725  0.05902710     0.06920
H486        H  0.61065379  0.75823015  0.06016134     0.06770
O487        O  0.81685127  0.83915218  0.20654366    -0.85810
O488        O  0.77341616  0.63752500  0.16771780    -0.85980
O489        O  0.84249893  0.75442190  0.14329222    -0.87640
O490        O  0.71676665  0.75220255  0.15707317    -0.86400
O491        O  0.68012007  0.75288693  0.21046659    -0.85990
O492        O  0.89259047  0.72842838  0.17420606    -0.87360
O493        O  0.77325830  0.69152979  0.13240401    -0.85840
O494        O  0.80011627  0.80551905  0.15428734    -0.85420
Zr495      Zr  0.78361105  0.74318458  0.17671589     2.84310
O496        O  0.74398593  0.70524574  0.21207819    -1.07400
O497        O  0.80928309  0.74184547  0.23819993    -1.08130
C498        C  0.81262618  0.83532921  0.17077443     1.07300
C499        C  0.77130548  0.65539733  0.13575262     1.07240
C500        C  0.87783823  0.74627114  0.14658574     1.10220
C501        C  0.68442269  0.75427266  0.17437651     1.08000
H502        H  0.83461929  0.67901272  0.17433787     0.33560
O503        O  0.82390755  0.69326700  0.19508585    -1.28350
H504        H  0.74674011  0.80515339  0.21281636     0.33230
O505        O  0.76100176  0.78451431  0.22355101    -1.30030
O506        O  0.79101030  0.61879025  0.29170515    -0.85800
O507        O  0.82181600  0.82414439  0.33050596    -0.87300
O508        O  0.88960427  0.64756460  0.22873731    -0.85880
O509        O  0.68814400  0.68687407  0.27091214    -0.85930
O510        O  0.70421976  0.81154373  0.27346444    -0.85640
O511        O  0.90360258  0.77311572  0.22048515    -0.85450
O512        O  0.88017730  0.70810573  0.34175682    -0.85820
O513        O  0.75700783  0.72149738  0.36093812    -0.85280
O514        O  0.91534776  0.70531027  0.28757959    -0.86340
O515        O  0.70438997  0.73923127  0.32716859    -0.85500
O516        O  0.83568701  0.61210545  0.22478159    -0.85900
O517        O  0.87030586  0.82519534  0.23979996    -0.85620
O518        O  0.75834160  0.84689156  0.27578474    -0.85270
O519        O  0.72164375  0.63533921  0.24880102    -0.85680
O520        O  0.80599250  0.65692491  0.34255042    -0.85980
O521        O  0.82402477  0.77079094  0.36656456    -0.87320
Zr522      Zr  0.78471575  0.65705686  0.23464506     2.83100
Zr523      Zr  0.81056030  0.80363229  0.26379177     2.83500
Zr524      Zr  0.87074573  0.71530212  0.23640016     2.84090
Zr525      Zr  0.72426455  0.74517129  0.26247811     2.83360
Zr526      Zr  0.81372970  0.72012845  0.32191469     2.84220
O527        O  0.77246144  0.76890632  0.30254747    -1.07890
O528        O  0.83475027  0.67773962  0.27437598    -1.07390
C529        C  0.79861398  0.62508184  0.32691292     1.07270
C530        C  0.82495367  0.80681919  0.36268368     1.09890
C531        C  0.87191023  0.61556311  0.22525033     1.07450
C532        C  0.69311219  0.65098869  0.26534223     1.07800
C533        C  0.72212425  0.84333448  0.27684245     1.07390
C534        C  0.89816457  0.80887991  0.22330599     1.06940
C535        C  0.91200094  0.70437276  0.32373205     1.07370
C536        C  0.72120265  0.72842879  0.35751669     1.06880
H537        H  0.87452594  0.76887777  0.29853310     0.33560
O538        O  0.85352720  0.75795776  0.28492615    -1.28990
H539        H  0.75019721  0.68163217  0.30074403     0.33580
O540        O  0.76466139  0.69716214  0.28381559    -1.30370
C541        C  0.63228934  0.64092209  0.53821271     0.03810
C542        C  0.61414943  0.60726090  0.52852545    -0.12340
C543        C  0.60463816  0.60038783  0.49068486     0.01310
C544        C  0.61617421  0.62567641  0.46257689    -0.10870
C545        C  0.63562052  0.65860699  0.47269927     0.03800
C546        C  0.64127023  0.66702145  0.51055269    -0.10290
H547        H  0.60603950  0.58754612  0.55023455     0.09400
H548        H  0.60940482  0.62010571  0.43328068     0.06920
H549        H  0.65621586  0.69264446  0.51839802     0.06770
C550        C  0.83247713  0.86181647  0.53523360     0.03810
C551        C  0.83224994  0.84222144  0.50017920    -0.12340
C552        C  0.83118207  0.86237882  0.46563787     0.01310
C553        C  0.83027828  0.90199574  0.46666882    -0.10870
C554        C  0.83043173  0.92150460  0.50121749     0.03800
C555        C  0.83154768  0.90143424  0.53523794    -0.10290
H556        H  0.83274292  0.81162515  0.49978669     0.09400
H557        H  0.82932337  0.91773116  0.44048262     0.06920
H558        H  0.83155892  0.91673728  0.56183619     0.06770
C559        C  0.58432206  0.58822374  0.62900752     0.03810
C560        C  0.54919449  0.60655613  0.62768285    -0.12340
C561        C  0.51651218  0.58464735  0.62724996     0.01310
C562        C  0.51807142  0.54823825  0.61221292    -0.10870
C563        C  0.55331956  0.53192744  0.60438931     0.03800
C564        C  0.58647471  0.55113633  0.61463615    -0.10290
H565        H  0.54653486  0.63583116  0.63617315     0.09400
H566        H  0.49284713  0.53083125  0.61219601     0.06920
H567        H  0.61274976  0.53540982  0.61561089     0.06770
C568        C  0.51691760  0.75485675  0.87890620     0.03810
C569        C  0.51657609  0.75559322  0.91859653    -0.12340
C570        C  0.55054365  0.75742828  0.93911129     0.01310
C571        C  0.58525976  0.75854260  0.91991996    -0.10870
C572        C  0.58656526  0.75783870  0.88033117     0.03800
C573        C  0.55218491  0.75595483  0.85979510    -0.10290
H574        H  0.48981865  0.75469643  0.93357444     0.09400
H575        H  0.61139553  0.75987476  0.93589632     0.06920
H576        H  0.55287542  0.75525161  0.82921811     0.06770
C577        C  0.78903922  0.43466494  0.56863869     0.03810
C578        C  0.82602588  0.42898575  0.55565754    -0.12340
C579        C  0.84866352  0.46004536  0.54743804     0.01310
C580        C  0.83444949  0.49652319  0.55322265    -0.10870
C581        C  0.79698215  0.50162328  0.56564949     0.03800
C582        C  0.77312785  0.47051347  0.56818081    -0.10290
H583        H  0.83781918  0.40070049  0.55419302     0.09400
H584        H  0.85290152  0.52056102  0.54917731     0.06920
H585        H  0.74461049  0.47420704  0.57901073     0.06770
C586        C  0.93159342  0.50902104  0.78093116     0.03810
C587        C  0.97133370  0.50892934  0.78113492    -0.12340
C588        C  0.99169893  0.47484689  0.78185136     0.01310
C589        C  0.97228652  0.44031043  0.78240378    -0.10870
C590        C  0.93255495  0.43934046  0.78222238     0.03800
C591        C  0.91218050  0.47396785  0.78144890    -0.10290
H592        H  0.98650640  0.53550405  0.78062999     0.09400
H593        H  0.98819480  0.41407227  0.78289255     0.06920
H594        H  0.88152795  0.47363636  0.78115490     0.06770
O595        O  0.84613390  0.73575232  0.86062601    -0.85810
O596        O  0.88438311  0.70843469  0.65631563    -0.85980
O597        O  0.89460604  0.64365634  0.77112970    -0.87640
O598        O  0.91293710  0.76915650  0.77027569    -0.86400
O599        O  0.88090497  0.82124015  0.74758999    -0.85990
O600        O  0.83964794  0.60960824  0.77247520    -0.87360
O601        O  0.92086013  0.70332475  0.70937992    -0.85840
O602        O  0.89746336  0.71649484  0.82541764    -0.85420
Zr603      Zr  0.87647331  0.71103303  0.76124912     2.84310
O604        O  0.85780041  0.75351697  0.71277217    -1.07400
O605        O  0.82731816  0.68848115  0.80079680    -1.08130
C606        C  0.88175294  0.72809796  0.85614385     1.07300
C607        C  0.91666588  0.70406989  0.67329449     1.07240
C608        C  0.87595687  0.61218341  0.77394384     1.10220
C609        C  0.90859481  0.80511277  0.76486588     1.08000
H610        H  0.85297733  0.65335961  0.71003701     0.33560
O611        O  0.83889446  0.67388922  0.72141858    -1.28350
H612        H  0.85228452  0.77322386  0.79962403     0.33230
O613        O  0.83640132  0.75900885  0.78285512    -1.30030
O614        O  0.75869637  0.70140249  0.64555823    -0.85800
O615        O  0.72201675  0.75133447  0.84352946    -0.87300
O616        O  0.78347380  0.61998876  0.70114746    -0.85880
O617        O  0.82773273  0.82263051  0.66978023    -0.85930
O618        O  0.82289047  0.83649770  0.79489940    -0.85640
O619        O  0.77760002  0.63375074  0.82770847    -0.85450
O620        O  0.69377890  0.68873843  0.72512150    -0.85820
O621        O  0.71143943  0.81117764  0.72956734    -0.85280
O622        O  0.72828249  0.63523316  0.73558179    -0.86340
O623        O  0.76541323  0.84674174  0.72920290    -0.85500
O624        O  0.80439581  0.65687494  0.65291602    -0.85900
O625        O  0.77788375  0.68657178  0.86536415    -0.85620
O626        O  0.80487930  0.80118160  0.84632810    -0.85270
O627        O  0.82661001  0.76938678  0.63303962    -0.85680
O628        O  0.70789595  0.72629445  0.67645395    -0.85980
O629        O  0.68669512  0.75453813  0.78957608    -0.87320
Zr630      Zr  0.81748226  0.71773783  0.67677121     2.83100
Zr631      Zr  0.78827896  0.73883560  0.82290562     2.83500
Zr632      Zr  0.78865241  0.65449541  0.76088336     2.84090
Zr633      Zr  0.81676451  0.80146516  0.73605237     2.83360
Zr634      Zr  0.73058906  0.74442584  0.73770828     2.84220
O635        O  0.76668271  0.78205900  0.77654731    -1.07890
O636        O  0.79157166  0.71706468  0.73816009    -1.07390
C637        C  0.72299364  0.70693013  0.64978432     1.07270
C638        C  0.69009511  0.75493139  0.82570918     1.09890
C639        C  0.79165706  0.62602528  0.66618610     1.07450
C640        C  0.82912073  0.80535642  0.63731515     1.07800
C641        C  0.81982114  0.83052076  0.83078579     1.07390
C642        C  0.77567433  0.65064701  0.86046797     1.06940
C643        C  0.69883855  0.65288479  0.72394049     1.07370
C644        C  0.72918815  0.84310377  0.72788926     1.06880
H645        H  0.72688134  0.69067059  0.79872443     0.33560
O646        O  0.74797101  0.70136028  0.78513253    -1.28990
H647        H  0.76584568  0.78126493  0.67556235     0.33580
O648        O  0.77673094  0.76679342  0.69591825    -1.30370
C649        C  0.52051476  0.38874316  0.34003785     0.03810
C650        C  0.51388478  0.41322859  0.37074681    -0.12340
C651        C  0.54466886  0.42811867  0.39115047     0.01310
C652        C  0.58174239  0.41697399  0.38228441    -0.10870
C653        C  0.58811328  0.39380176  0.35105182     0.03800
C654        C  0.55786905  0.38090271  0.32965482    -0.10290
H655        H  0.48533492  0.42213340  0.37762531     0.09400
H656        H  0.60560934  0.42886374  0.39739241     0.06920
H657        H  0.56390408  0.36405994  0.30471711     0.06770
C658        C  0.58398968  0.19667875  0.12017316     0.03810
C659        C  0.54996556  0.19782611  0.14124530    -0.12340
C660        C  0.51454051  0.19718541  0.12270013     0.01310
C661        C  0.51344881  0.19544325  0.08318805    -0.10870
C662        C  0.54699779  0.19434713  0.06213147     0.03800
C663        C  0.58212659  0.19494754  0.08060310    -0.10290
H664        H  0.55104576  0.19935197  0.17178770     0.09400
H665        H  0.48639273  0.19509340  0.06875133     0.06920
H666        H  0.60801939  0.19422232  0.06415229     0.06770
O667        O  0.84319802  0.21078073  0.14226066    -0.85810
O668        O  0.87880757  0.24919134  0.34617323    -0.85980
O669        O  0.89338210  0.30878096  0.22915482    -0.87640
O670        O  0.91078133  0.18419084  0.23820737    -0.86400
O671        O  0.87591120  0.13374129  0.25980170    -0.85990
O672        O  0.83937965  0.34460714  0.22905748    -0.87360
O673        O  0.91600421  0.25116486  0.29321901    -0.85840
O674        O  0.89525725  0.22808547  0.17731365    -0.85420
Zr675      Zr  0.87310457  0.24246349  0.24070285     2.84310
O676        O  0.85230493  0.20157061  0.28984102    -1.07400
O677        O  0.82540856  0.26575424  0.19972163    -1.08130
C678        C  0.87927078  0.21396784  0.14768194     1.07300
C679        C  0.91127513  0.25206086  0.32921183     1.07240
C680        C  0.87557114  0.34088143  0.22696337     1.10220
C681        C  0.90591407  0.14876811  0.24591223     1.08000
H682        H  0.84963985  0.30206431  0.29180241     0.33560
O683        O  0.83573902  0.28152631  0.28039036    -1.28350
H684        H  0.84882559  0.17973442  0.20455966     0.33230
O685        O  0.83243706  0.19521624  0.21975010    -1.29390
O686        O  0.75593303  0.23332822  0.36417107    -0.85800
O687        O  0.71884159  0.20456447  0.15824062    -0.87300
O688        O  0.77564108  0.33566975  0.29747095    -0.85880
O689        O  0.82091114  0.13357138  0.33332428    -0.85930
O690        O  0.81946902  0.11843741  0.20769657    -0.85640
O691        O  0.77817802  0.32198059  0.17333200    -0.85450
O692        O  0.69724634  0.27302323  0.28529181    -0.85820
O693        O  0.70589654  0.14761264  0.27042878    -0.85280
O694        O  0.72582307  0.32351697  0.25794326    -0.86340
O695        O  0.75900196  0.11042732  0.27283352    -0.85500
O696        O  0.78801556  0.29750837  0.34746383    -0.85900
O697        O  0.77734589  0.26899741  0.13600754    -0.85620
O698        O  0.79866916  0.15275273  0.15647038    -0.85270
O699        O  0.82596892  0.18759968  0.36849480    -0.85680
O700        O  0.70417439  0.22354333  0.32662320    -0.85980
O701        O  0.68225036  0.20661580  0.21158818    -0.87320
Zr702      Zr  0.81242271  0.23882329  0.32538150     2.83100
Zr703      Zr  0.78503707  0.21617537  0.17885819     2.83500
Zr704      Zr  0.78717162  0.30109347  0.23927837     2.84090
Zr705      Zr  0.81148501  0.15393426  0.26638316     2.83360
Zr706      Zr  0.72625029  0.21451811  0.26361203     2.84220
O707        O  0.76193428  0.17478993  0.22596735    -1.07890
O708        O  0.78789871  0.23919080  0.26352958    -1.07390
C709        C  0.72073137  0.22596449  0.35861831     1.07270
C710        C  0.68647852  0.20349724  0.17561686     1.09890
C711        C  0.77678178  0.32850680  0.33299671     1.07450
C712        C  0.82522424  0.15146763  0.36520846     1.07800
C713        C  0.81507924  0.12407541  0.17186316     1.07390
C714        C  0.77608887  0.30504215  0.14089138     1.06940
C715        C  0.70085564  0.30859718  0.27932074     1.07370
C716        C  0.72286286  0.11511936  0.27305731     1.06880
H717        H  0.72461419  0.26702968  0.20135879     0.33560
O718        O  0.74517305  0.25575187  0.21533816    -1.28990
H719        H  0.76150348  0.17459966  0.32424566     0.33580
O720        O  0.77216325  0.19019107  0.30466010    -1.30370
C721        C  0.52032485  0.39725614  0.69020726     0.03810
C722        C  0.55325652  0.39264158  0.71115102    -0.12340
C723        C  0.58765454  0.40581434  0.69754805     0.01310
C724        C  0.58856307  0.42693692  0.66429521    -0.10870
C725        C  0.55497270  0.43380676  0.64454310     0.03800
C726        C  0.52069386  0.41872752  0.65722554    -0.10290
H727        H  0.55270797  0.37464857  0.73588670     0.09400
H728        H  0.61529522  0.43746691  0.65366048     0.06920
H729        H  0.49483641  0.42305956  0.64133961     0.06770
C730        C  0.51288605  0.19049076  0.88572615     0.03810
C731        C  0.51173038  0.19063706  0.92539811    -0.12340
C732        C  0.54529325  0.19148560  0.94656816     0.01310
C733        C  0.58038009  0.19213426  0.92826083    -0.10870
C734        C  0.58262364  0.19203330  0.88882232     0.03800
C735        C  0.54866465  0.19123999  0.86739402    -0.10290
H736        H  0.48466563  0.19027441  0.93984545     0.09400
H737        H  0.60614890  0.19291104  0.94487534     0.06920
H738        H  0.55006173  0.19136700  0.83684111     0.06770
C739        C  0.62909936  0.16359513  0.53453963     0.03810
C740        C  0.58963370  0.16528964  0.53328924    -0.12340
C741        C  0.57087554  0.16003700  0.49901100     0.01310
C742        C  0.59133830  0.15136153  0.46636604    -0.10870
C743        C  0.63098392  0.15134965  0.46758768     0.03800
C744        C  0.64911278  0.15222405  0.50258326    -0.10290
H745        H  0.57411922  0.17680112  0.55718233     0.09400
H746        H  0.57711348  0.15226025  0.43925614     0.06920
H747        H  0.67971905  0.15197410  0.50392133     0.06770
C748        C  0.82764886  0.09695788  0.46872063     0.03810
C749        C  0.82818568  0.05734048  0.46882244    -0.12340
C750        C  0.82766053  0.03728134  0.50284623     0.01310
C751        C  0.82654835  0.05676220  0.53738162    -0.10870
C752        C  0.82597754  0.09637832  0.53848994     0.03800
C753        C  0.82647344  0.11658742  0.50385257    -0.10290
H754        H  0.82904499  0.04199244  0.44225945     0.09400
H755        H  0.82617327  0.04096895  0.56354807     0.06920
H756        H  0.82596668  0.14717879  0.50423249     0.06770
O757        O  0.84595791  0.20042920  0.86551758    -0.85810
O758        O  0.87746579  0.24741429  0.66376670    -0.85980
O759        O  0.90565231  0.17700232  0.78182690    -0.87640
O760        O  0.89376619  0.30399104  0.77757910    -0.86400
O761        O  0.84043663  0.34070511  0.78114034    -0.85990
O762        O  0.87315065  0.12693183  0.75757045    -0.87360
O763        O  0.91529444  0.24631014  0.71626188    -0.85840
O764        O  0.89713603  0.22033076  0.83182093    -0.85420
Zr765      Zr  0.87328193  0.23669653  0.77001015     2.84310
O766        O  0.83677665  0.27615355  0.73314744    -1.07400
O767        O  0.81128687  0.21176713  0.77047340    -1.08130
C768        C  0.88165525  0.20538794  0.86094510     1.07300
C769        C  0.91021691  0.24895149  0.68033236     1.07240
C770        C  0.90127976  0.14150239  0.77505515     1.10220
C771        C  0.87657698  0.33647447  0.78046722     1.08000
H772        H  0.87283190  0.18557537  0.70580981     0.33560
O773        O  0.85265398  0.19658244  0.72067109    -1.28350
H774        H  0.83947127  0.27321796  0.83354035     0.33230
O775        O  0.82795167  0.25927035  0.81308467    -1.30030
O776        O  0.75342137  0.22950659  0.64803330    -0.85800
O777        O  0.71970956  0.20104081  0.85379532    -0.87300
O778        O  0.81818923  0.13204576  0.67492582    -0.85880
O779        O  0.78060092  0.33485399  0.71823983    -0.85930
O780        O  0.77926499  0.31708926  0.84091677    -0.85640
O781        O  0.82346011  0.11584297  0.80049251    -0.85450
O782        O  0.70451952  0.14513095  0.73790137    -0.85820
O783        O  0.68954361  0.26930695  0.74743748    -0.85280
O784        O  0.75788774  0.10861042  0.73278042    -0.86340
O785        O  0.72459562  0.31877054  0.77120302    -0.85500
O786        O  0.82089393  0.18607931  0.63987474    -0.85900
O787        O  0.80600985  0.14816507  0.85356142    -0.85620
O788        O  0.77723679  0.26324059  0.87645058    -0.85270
O789        O  0.79699949  0.29844750  0.66666547    -0.85680
O790        O  0.70369709  0.21682335  0.68776464    -0.85980
O791        O  0.68234857  0.20114586  0.80107857    -0.87320
Zr792      Zr  0.81170307  0.23577473  0.68577313     2.83100
Zr793      Zr  0.78696085  0.21047337  0.83284107     2.83500
Zr794      Zr  0.81110465  0.15061484  0.74319044     2.84090
Zr795      Zr  0.78843791  0.29674916  0.77494947     2.83360
Zr796      Zr  0.72609977  0.21047028  0.75025811     2.84220
O797        O  0.74769903  0.24988339  0.79953182    -1.07890
O798        O  0.77181400  0.18696838  0.70720192    -1.07390
C799        C  0.71820018  0.22186425  0.65504641     1.07270
C800        C  0.68701172  0.19914866  0.83686952     1.09890
C801        C  0.82095811  0.14996971  0.64296060     1.07450
C802        C  0.78443970  0.32872963  0.68241077     1.07800
C803        C  0.77628568  0.29944648  0.87269485     1.07390
C804        C  0.82041377  0.11944155  0.83648778     1.06940
C805        C  0.72173510  0.11310079  0.73289958     1.07370
C806        C  0.69494445  0.30445268  0.75606375     1.06880
H807        H  0.74956206  0.14871418  0.79737266     0.33560
O808        O  0.76357755  0.16938663  0.78651765    -1.28990
H809        H  0.74798462  0.27294849  0.71125365     0.33580
O810        O  0.76464957  0.25805323  0.72670384    -1.30370
O811        O  0.25748569  0.20092707  0.14604276    -0.85810
O812        O  0.21515716  0.25477574  0.34499933    -0.85980
O813        O  0.18942910  0.18237556  0.23492491    -0.87640
O814        O  0.20312578  0.30767414  0.22637726    -0.86400
O815        O  0.25621549  0.34463920  0.22488995    -0.85990
O816        O  0.22486878  0.13348362  0.25730250    -0.87360
O817        O  0.18010391  0.25392720  0.29065404    -0.85840
O818        O  0.20379972  0.21526532  0.17870153    -0.85420
Zr819      Zr  0.22413681  0.24147101  0.23865678     2.84310
O820        O  0.25867211  0.28238115  0.27587160    -1.07400
O821        O  0.28671696  0.21794845  0.24120121    -1.08130
C822        C  0.22145718  0.20112550  0.15023800     1.07300
C823        C  0.18335125  0.25648464  0.32685686     1.07240
C824        C  0.19446882  0.14744794  0.24366658     1.10220
C825        C  0.22017194  0.34005477  0.22337376     1.08000
H826        H  0.22343388  0.19258170  0.30393758     0.33560
O827        O  0.24387933  0.20338001  0.28948420    -1.28350
H828        H  0.26003431  0.27656172  0.17539012     0.33230
O829        O  0.27084099  0.26350605  0.19672536    -1.30030
O830        O  0.33844882  0.25544858  0.36261485    -0.85800
O831        O  0.38157188  0.20679513  0.16224648    -0.87300
O832        O  0.27933080  0.13805961  0.33485050    -0.85880
O833        O  0.30881397  0.34135325  0.29164410    -0.85930
O834        O  0.32120351  0.32104932  0.16945489    -0.85640
O835        O  0.27016554  0.12516680  0.20952218    -0.85450
O836        O  0.39210896  0.15006684  0.28010146    -0.85820
O837        O  0.40753713  0.27364974  0.26698870    -0.85280
O838        O  0.33879397  0.11362176  0.27772090    -0.86340
O839        O  0.37221453  0.32546073  0.24962480    -0.85500
O840        O  0.27576253  0.19196447  0.37060503    -0.85900
O841        O  0.29964001  0.15263480  0.15946122    -0.85620
O842        O  0.32394421  0.26620715  0.13522332    -0.85270
O843        O  0.29189544  0.30893109  0.34517305    -0.85680
O844        O  0.39096478  0.23580554  0.32923503    -0.85980
O845        O  0.41663261  0.20603100  0.21654144    -0.87320
Zr846      Zr  0.28168580  0.24402395  0.32580288     2.83100
Zr847      Zr  0.31421194  0.21543910  0.18039913     2.83500
Zr848      Zr  0.28676841  0.15728446  0.26813143     2.84090
Zr849      Zr  0.30883123  0.30212682  0.23554623     2.83360
Zr850      Zr  0.37114056  0.21585943  0.26681860     2.84220
O851        O  0.35194694  0.25466293  0.21554162    -1.07890
O852        O  0.32317722  0.19391424  0.30797638    -1.07390
C853        C  0.37452227  0.25264992  0.35725045     1.07270
C854        C  0.41336376  0.20451128  0.18041538     1.09890
C855        C  0.27621819  0.15567929  0.36686216     1.07450
C856        C  0.30408103  0.33838881  0.32767207     1.07800
C857        C  0.32466107  0.30247490  0.13800644     1.07390
C858        C  0.27859461  0.12737468  0.17428382     1.06940
C859        C  0.37476350  0.11776986  0.28104953     1.07370
C860        C  0.40269990  0.30946902  0.26200289     1.06880
H861        H  0.35088079  0.15424015  0.21734163     0.33560
O862        O  0.33630618  0.17499609  0.22762860    -1.28990
H863        H  0.34404037  0.28079953  0.29899021     0.33580
O864        O  0.32903848  0.26354501  0.28444414    -1.30370
C865        C  0.82485798  0.11514460  0.57558139    -0.12590
C866        C  0.82359983  0.12905287  0.60727316    -0.14150
C867        C  0.65858708  0.19410727  0.63151585    -0.12670
C868        C  0.69219136  0.21414480  0.62382494     0.09480
C869        C  0.70244121  0.22117337  0.58643927    -0.12670
C870        C  0.68091982  0.20591814  0.55728682    -0.12670
C871        C  0.64969114  0.18246237  0.56528669     0.09480
C872        C  0.63785362  0.17802156  0.60253446    -0.12670
H873        H  0.64948184  0.18841299  0.66012601     0.13470
H874        H  0.72767206  0.23712621  0.57979398     0.13470
H875        H  0.68934241  0.21169752  0.52849157     0.13470
H876        H  0.61353803  0.16080157  0.60938444     0.13470
C877        C  0.65210179  0.19525089  0.85840747    -0.12590
C878        C  0.62021154  0.19334226  0.87150502    -0.14150
C879        C  0.64186283  0.36390919  0.68843321    -0.12670
C880        C  0.62164122  0.38795048  0.71264089     0.09480
C881        C  0.62687674  0.38552483  0.75191340    -0.12670
C882        C  0.65045343  0.35769765  0.76677974    -0.12670
C883        C  0.66783151  0.33172337  0.74241108     0.09480
C884        C  0.66451281  0.33566023  0.70328964    -0.12670
H885        H  0.63770530  0.36494021  0.65815138     0.13470
H886        H  0.61096829  0.40363104  0.77092658     0.13470
H887        H  0.65427397  0.35569348  0.79704604     0.13470
H888        H  0.67947016  0.31674750  0.68424384     0.13470
C889        C  0.66049255  0.22003455  0.39307529    -0.12670
C890        C  0.69901513  0.21154331  0.38999667     0.09480
C891        C  0.71412966  0.18050127  0.40927154    -0.12670
C892        C  0.69090689  0.15796184  0.43126833    -0.12670
C893        C  0.65251784  0.16719979  0.43580704     0.09480
C894        C  0.63753704  0.19847784  0.41632466    -0.12670
H895        H  0.64808098  0.24287456  0.37703348     0.13470
H896        H  0.74349112  0.17234358  0.40552762     0.13470
H897        H  0.70320163  0.13401665  0.44576182     0.13470
H898        H  0.60840342  0.20728425  0.42001144     0.13470
C899        C  0.82813699  0.11629964  0.43210237    -0.12590
C900        C  0.82785631  0.13051695  0.40066396    -0.14150
C901        C  0.54421608  0.19210927  0.98732126    -0.12590
C902        C  0.54524235  0.19296647  0.02141565    -0.14150
C903        C  0.47893079  0.19879004  0.14343263    -0.12590
C904        C  0.44840132  0.20073701  0.15923698    -0.14150
C905        C  0.62093911  0.19781300  0.13859932    -0.12590
C906        C  0.65180457  0.19955706  0.15381236    -0.14150
C907        C  0.45535492  0.38877208  0.31022433    -0.12670
C908        C  0.48982916  0.37049525  0.31812305     0.09480
C909        C  0.49603093  0.33393759  0.30371137    -0.12670
C910        C  0.46911769  0.31622274  0.28169585    -0.12670
C911        C  0.43398334  0.33337169  0.27528273     0.09480
C912        C  0.42746153  0.37018456  0.28904371    -0.12670
H913        H  0.44981237  0.41705802  0.32060842     0.13470
H914        H  0.52149132  0.31821065  0.31024671     0.13470
H915        H  0.47500548  0.28779430  0.27182062     0.13470
H916        H  0.40033212  0.38383123  0.28494935     0.13470
C917        C  0.63997847  0.39231372  0.30476673    -0.12670
C918        C  0.62562645  0.38076836  0.33980006     0.09480
C919        C  0.63944493  0.34787885  0.35665810    -0.12670
C920        C  0.66456851  0.32473695  0.33700081    -0.12670
C921        C  0.67619615  0.33438608  0.30042838     0.09480
C922        C  0.66546560  0.36931600  0.28524009    -0.12670
H923        H  0.62880744  0.41729734  0.29112034     0.13470
H924        H  0.62805562  0.33832686  0.38336332     0.13470
H925        H  0.67406044  0.29875083  0.34987856     0.13470
H926        H  0.67494891  0.37769826  0.25743192     0.13470
C927        C  0.91353129  0.40251878  0.78250018    -0.12590
C928        C  0.89856591  0.37140306  0.78220145    -0.14150
C929        C  0.91164780  0.54543149  0.77973286    -0.12590
C930        C  0.89662851  0.57654387  0.77793725    -0.14150
C931        C  0.78383376  0.42144574  0.63576901    -0.12670
C932        C  0.77615430  0.41010321  0.59845458     0.09480
C933        C  0.76346465  0.37378777  0.59057144    -0.12670
C934        C  0.76182977  0.34779559  0.61968837    -0.12670
C935        C  0.77386410  0.35811791  0.65622694     0.09480
C936        C  0.78232035  0.39553877  0.66476913    -0.12670
H937        H  0.79490388  0.44926556  0.64184972     0.13470
H938        H  0.75767201  0.36496275  0.56183613     0.13470
H939        H  0.75440212  0.31883945  0.61306152     0.13470
H940        H  0.79172715  0.40376779  0.69272011     0.13470
C941        C  0.79946219  0.57096201  0.57559446    -0.12670
C942        C  0.78703963  0.53555282  0.58731747     0.09480
C943        C  0.77173880  0.53125939  0.62381803    -0.12670
C944        C  0.77237425  0.56086124  0.64938534    -0.12670
C945        C  0.78720706  0.59559854  0.63856005     0.09480
C946        C  0.79959238  0.60081511  0.60104604    -0.12670
H947        H  0.81100900  0.57495148  0.54755750     0.13470
H948        H  0.76183716  0.50430477  0.63389684     0.13470
H949        H  0.76267374  0.55602023  0.67796664     0.13470
H950        H  0.81086670  0.62757257  0.59162482     0.13470
C951        C  0.62352061  0.75851957  0.86159421    -0.12590
C952        C  0.65481755  0.75806208  0.84696112    -0.14150
C953        C  0.55490612  0.49184924  0.60173365    -0.12590
C954        C  0.55507959  0.46088011  0.61498362    -0.14150
C955        C  0.60485094  0.62931830  0.68348355    -0.12670
C956        C  0.61445241  0.60368154  0.65421031     0.09480
C957        C  0.65220265  0.59111298  0.65179741    -0.12670
C958        C  0.67935776  0.60477322  0.67696076    -0.12670
C959        C  0.66946309  0.63141755  0.70462669     0.09480
C960        C  0.63197869  0.64311001  0.70804064    -0.12670
H961        H  0.57646378  0.63943758  0.68806588     0.13470
H962        H  0.66132817  0.57196269  0.62972383     0.13470
H963        H  0.70851309  0.59659333  0.67314671     0.13470
H964        H  0.62385958  0.66397016  0.72905128     0.13470
C965        C  0.82846083  0.99646224  0.50229960    -0.12590
C966        C  0.82930970  0.96231786  0.50178465    -0.14150
C967        C  0.83300225  0.84218021  0.57157106    -0.12590
C968        C  0.83233629  0.82709669  0.60251831    -0.14150
C969        C  0.68736343  0.63701721  0.57824989    -0.12670
C970        C  0.64942500  0.64772589  0.57481453     0.09480
C971        C  0.63474861  0.67657534  0.59780591    -0.12670
C972        C  0.65849611  0.69585788  0.62268612    -0.12670
C973        C  0.69733995  0.68718486  0.62379321     0.09480
C974        C  0.71123014  0.65706372  0.60196347    -0.12670
H975        H  0.69937298  0.61572515  0.55965456     0.13470
H976        H  0.60573422  0.68592175  0.59443001     0.13470
H977        H  0.64682727  0.71849397  0.63978640     0.13470
H978        H  0.74078825  0.64956981  0.60243161     0.13470
C979        C  0.65792794  0.71495625  0.38561637    -0.12670
C980        C  0.69725675  0.71966324  0.39010913     0.09480
C981        C  0.71449510  0.70859889  0.42387800    -0.12670
C982        C  0.69379216  0.68958161  0.45085318    -0.12670
C983        C  0.65534288  0.68175583  0.44489040     0.09480
C984        C  0.63712733  0.69543819  0.41269688    -0.12670
H985        H  0.64381242  0.72358113  0.35992477     0.13470
H986        H  0.74457102  0.71224547  0.42844307     0.13470
H987        H  0.70839421  0.67924409  0.47565244     0.13470
H988        H  0.60731245  0.69012870  0.40809549     0.13470
C989        C  0.82880285  0.82850997  0.39764063    -0.12590
C990        C  0.83040719  0.84329897  0.42883051    -0.14150
C991        C  0.55000834  0.75890504  0.01422004    -0.12590
C992        C  0.54996400  0.75816344  0.98002029    -0.14150
C993        C  0.61988698  0.75922142  0.13537699    -0.12590
C994        C  0.64999007  0.75763078  0.15206522    -0.14150
C995        C  0.54106111  0.49709879  0.40736109    -0.12590
C996        C  0.54013392  0.46342063  0.41028029    -0.14150
C997        C  0.63236932  0.56624841  0.28628474    -0.12670
C998        C  0.61865178  0.57598720  0.32228042     0.09480
C999        C  0.63056710  0.60944919  0.33954984    -0.12670
C1000       C  0.65410701  0.63403931  0.32020062    -0.12670
C1001       C  0.66635351  0.62542937  0.28351545     0.09480
C1002       C  0.65664784  0.59065406  0.26716623    -0.12670
H1003       H  0.62239738  0.54096494  0.27217457     0.13470
H1004       H  0.61928947  0.61792926  0.36671681     0.13470
H1005       H  0.66279742  0.65991424  0.33380637     0.13470
H1006       H  0.66672830  0.58307414  0.23924957     0.13470
C1007       C  0.90928464  0.54959497  0.22137504    -0.12590
C1008       C  0.89360662  0.58041035  0.22252187    -0.14150
C1009       C  0.89704976  0.37592229  0.22301261    -0.12590
C1010       C  0.91213892  0.40692436  0.22139960    -0.14150
C1011       C  0.88787451  0.45501660  0.49098228    -0.12590
C1012       C  0.88122724  0.45491130  0.52406993    -0.14150
C1013       C  0.84313953  0.54463293  0.37534684    -0.12670
C1014       C  0.82197859  0.54362318  0.40878307     0.09480
C1015       C  0.79117928  0.56805759  0.41404074    -0.12670
C1016       C  0.78170542  0.59347783  0.38582554    -0.12670
C1017       C  0.80231808  0.59358198  0.35200602     0.09480
C1018       C  0.83309510  0.56933309  0.34684510    -0.12670
H1019       H  0.86612371  0.52484554  0.37053806     0.13470
H1020       H  0.77392011  0.56645120  0.43928023     0.13470
H1021       H  0.75863475  0.61324260  0.39034050     0.13470
H1022       H  0.85000891  0.57042166  0.32132637     0.13470
C1023       C  0.77311424  0.42530578  0.37195609    -0.12670
C1024       C  0.78188638  0.41751742  0.40993909     0.09480
C1025       C  0.77673637  0.38101531  0.42386089    -0.12670
C1026       C  0.76930734  0.35165679  0.39880379    -0.12670
C1027       C  0.76765899  0.35879098  0.35974752     0.09480
C1028       C  0.76578102  0.39602629  0.34698965    -0.12670
H1029       H  0.77663049  0.45327363  0.36025848     0.13470
H1030       H  0.78215909  0.37466554  0.45325331     0.13470
H1031       H  0.76918407  0.32306928  0.40956192     0.13470
H1032       H  0.76343533  0.40236186  0.31718952     0.13470
C1033       C  0.47220248  0.61740385  0.71824200    -0.12670
C1034       C  0.43439471  0.62018314  0.70778167     0.09480
C1035       C  0.42264888  0.60743677  0.67206259    -0.12670
C1036       C  0.44891681  0.59384044  0.64596918    -0.12670
C1037       C  0.48723353  0.59406087  0.65524521     0.09480
C1038       C  0.49835796  0.60349225  0.69235465    -0.12670
H1039       H  0.48159327  0.62732124  0.74563954     0.13470
H1040       H  0.39360266  0.61093312  0.66334208     0.13470
H1041       H  0.43969186  0.58511491  0.61815671     0.13470
H1042       H  0.52754959  0.60103679  0.70100515     0.13470
C1043       C  0.45036494  0.75043148  0.84235039    -0.12590
C1044       C  0.48085970  0.75270562  0.85848399    -0.14150
C1045       C  0.06698472  0.47516241  0.78180043    -0.12590
C1046       C  0.03270318  0.47528438  0.78186257    -0.14150
C1047       C  0.18978549  0.54198038  0.77698415    -0.12590
C1048       C  0.20632723  0.57208391  0.77440962    -0.14150
C1049       C  0.36239800  0.52523469  0.63768481    -0.12670
C1050       C  0.36220691  0.52788453  0.59830907     0.09480
C1051       C  0.34259945  0.55729209  0.58066238    -0.12670
C1052       C  0.32365006  0.58427938  0.60267846    -0.12670
C1053       C  0.32424927  0.58183709  0.64238760     0.09480
C1054       C  0.34317256  0.55146878  0.65946444    -0.12670
H1055       H  0.37695227  0.50216228  0.65157554     0.13470
H1056       H  0.34146918  0.55894191  0.55015908     0.13470
H1057       H  0.30932149  0.60738750  0.58871357     0.13470
H1058       H  0.34459605  0.54865579  0.68985798     0.13470
C1059       C  0.27477066  0.81880401  0.59662410    -0.12590
C1060       C  0.27284564  0.83566293  0.56661080    -0.14150
C1061       C  0.54003465  0.57433814  0.48084570    -0.12590
C1062       C  0.57380731  0.57570206  0.48268587    -0.14150
C1063       C  0.47066507  0.67730810  0.58667166    -0.12670
C1064       C  0.45589923  0.64861349  0.56369461     0.09480
C1065       C  0.41769212  0.63889989  0.56650308    -0.12670
C1066       C  0.39387712  0.65906548  0.59027538    -0.12670
C1067       C  0.40794195  0.68876535  0.61250894     0.09480
C1068       C  0.44686388  0.69694287  0.61151250    -0.12670
H1069       H  0.49988673  0.68595559  0.58367475     0.13470
H1070       H  0.40570895  0.61759879  0.54799966     0.13470
H1071       H  0.36430840  0.65141434  0.59107361     0.13470
H1072       H  0.45859566  0.71915763  0.62900224     0.13470
C1073       C  0.46641669  0.31123934  0.71621268    -0.12670
C1074       C  0.43212826  0.32657660  0.72894323     0.09480
C1075       C  0.42655447  0.36602289  0.72805720    -0.12670
C1076       C  0.45451250  0.38949969  0.71345334    -0.12670
C1077       C  0.48828542  0.37367867  0.70028189     0.09480
C1078       C  0.49400771  0.33454017  0.70150609    -0.12670
H1079       H  0.47188897  0.28116180  0.71725748     0.13470
H1080       H  0.40026116  0.37861752  0.73762349     0.13470
H1081       H  0.45023610  0.41980428  0.71321665     0.13470
H1082       H  0.52039961  0.32214082  0.69184694     0.13470
C1083       C  0.44626823  0.19105320  0.84890675    -0.12590
C1084       C  0.47702332  0.19023849  0.86475822    -0.14150
C1085       C  0.30944574  0.36090219  0.61437753    -0.12670
C1086       C  0.33044713  0.34819010  0.64539453     0.09480
C1087       C  0.36920736  0.35575362  0.64737789    -0.12670
C1088       C  0.38649703  0.37800655  0.62023580    -0.12670
C1089       C  0.36494350  0.39321709  0.59089330     0.09480
C1090       C  0.32657948  0.38362114  0.58734321    -0.12670
H1091       H  0.27966901  0.35421387  0.61175345     0.13470
H1092       H  0.38616074  0.34373289  0.66950948     0.13470
H1093       H  0.41600524  0.38552758  0.62365526     0.13470
H1094       H  0.30944263  0.39589088  0.56518570     0.13470
C1095       C  0.18484756  0.40011290  0.78336879    -0.12590
C1096       C  0.19962531  0.36894458  0.78281798    -0.14150
C1097       C  0.27107895  0.95761984  0.49746299    -0.12590
C1098       C  0.27127445  0.99191054  0.49728985    -0.14150
C1099       C  0.26883199  0.10992570  0.57200106    -0.12590
C1100       C  0.26924407  0.12509713  0.60291634    -0.14150
C1101       C  0.27253543  0.11548616  0.43073871    -0.12590
C1102       C  0.27374044  0.13329955  0.40132098    -0.14150
C1103       C  0.53668620  0.18072436  0.49469887    -0.12590
C1104       C  0.51779585  0.20877721  0.49424670    -0.14150
C1105       C  0.46215877  0.28684986  0.60489181    -0.12670
C1106       C  0.44778347  0.29724878  0.56955613     0.09480
C1107       C  0.40839529  0.29776375  0.56403010    -0.12670
C1108       C  0.38437544  0.28284087  0.59118725    -0.12670
C1109       C  0.39936084  0.26754248  0.62442715     0.09480
C1110       C  0.43823517  0.27124836  0.63175333    -0.12670
H1111       H  0.49239480  0.28655532  0.60993535     0.13470
H1112       H  0.39628114  0.30576754  0.53722886     0.13470
H1113       H  0.35434728  0.28159670  0.58525353     0.13470
H1114       H  0.45056541  0.26022150  0.65734089     0.13470
C1115       C  0.45988213  0.30042208  0.39909085    -0.12670
C1116       C  0.44701426  0.30728300  0.43598824     0.09480
C1117       C  0.40803252  0.30459147  0.44353225    -0.12670
C1118       C  0.38424898  0.28713194  0.41771875    -0.12670
C1119       C  0.39887313  0.27337048  0.38356714     0.09480
C1120       C  0.43617103  0.28250794  0.37333070    -0.12670
H1121       H  0.48957500  0.30353802  0.39213894     0.13470
H1122       H  0.39668170  0.31077061  0.47121309     0.13470
H1123       H  0.35505220  0.28229193  0.42559339     0.13470
H1124       H  0.44760333  0.27414580  0.34620370     0.13470
C1125       C  0.44589732  0.63676409  0.31275588    -0.12670
C1126       C  0.43362870  0.62851563  0.27617976     0.09480
C1127       C  0.44598001  0.59534281  0.25813544    -0.12670
C1128       C  0.47149426  0.57148782  0.27652064    -0.12670
C1129       C  0.48339081  0.58022277  0.31332288     0.09480
C1130       C  0.47030653  0.61274575  0.33140978    -0.12670
H1131       H  0.43547199  0.66131348  0.32722028     0.13470
H1132       H  0.43624279  0.58823406  0.23001775     0.13470
H1133       H  0.48249500  0.54679857  0.26200756     0.13470
H1134       H  0.48006459  0.62017589  0.35943818     0.13470
C1135       C  0.44742198  0.76217682  0.14933231    -0.12590
C1136       C  0.47812762  0.76291996  0.13374773    -0.14150
C1137       C  0.38606794  0.68480593  0.41008096    -0.12670
C1138       C  0.40203613  0.70605419  0.38090581     0.09480
C1139       C  0.44166799  0.71035274  0.37926710    -0.12670
C1140       C  0.46486702  0.69055623  0.40433485    -0.12670
C1141       C  0.44839401  0.66716470  0.43143070     0.09480
C1142       C  0.40900449  0.66507544  0.43462616    -0.12670
H1143       H  0.35573833  0.68195892  0.41306683     0.13470
H1144       H  0.45472490  0.72706212  0.35731879     0.13470
H1145       H  0.49532335  0.69345197  0.40268042     0.13470
H1146       H  0.39597911  0.64816044  0.45649239     0.13470
C1147       C  0.26553571  0.82356778  0.39354333    -0.12590
C1148       C  0.26562825  0.83848320  0.42467444    -0.14150
C1149       C  0.06536780  0.48082762  0.21682051    -0.12590
C1150       C  0.03105971  0.48055350  0.21769765    -0.14150
C1151       C  0.18857580  0.54774665  0.21290832    -0.12590
C1152       C  0.20521963  0.57797173  0.21336830    -0.14150
C1153       C  0.19804006  0.37457588  0.21897160    -0.12590
C1154       C  0.18318304  0.40565945  0.21695671    -0.14150
C1155       C  0.45849294  0.46934773  0.47929715    -0.12590
C1156       C  0.45404351  0.46616521  0.51262149    -0.14150
C1157       C  0.36893426  0.57950464  0.40770093    -0.12670
C1158       C  0.39463534  0.55485366  0.39016437     0.09480
C1159       C  0.39907168  0.55578743  0.35094756    -0.12670
C1160       C  0.37605864  0.57866367  0.32918347    -0.12670
C1161       C  0.34964019  0.60296939  0.34622384     0.09480
C1162       C  0.34668850  0.60370359  0.38582155    -0.12670
H1163       H  0.36390673  0.57779385  0.43781595     0.13470
H1164       H  0.41734804  0.53550413  0.33685002     0.13470
H1165       H  0.37864684  0.57669509  0.29882159     0.13470
H1166       H  0.32626094  0.62185468  0.39974766     0.13470
C1167       C  0.33130826  0.40216598  0.33129594    -0.12670
C1168       C  0.31855053  0.37001558  0.35030297     0.09480
C1169       C  0.32785717  0.36523084  0.38865464    -0.12670
C1170       C  0.35113525  0.39142423  0.40700008    -0.12670
C1171       C  0.36525828  0.42244700  0.38703438     0.09480
C1172       C  0.35517285  0.42733230  0.34904762    -0.12670
H1173       H  0.32493181  0.40677960  0.30176139     0.13470
H1174       H  0.31864701  0.34048919  0.40391516     0.13470
H1175       H  0.35814750  0.38742771  0.43647039     0.13470
H1176       H  0.36619480  0.45063580  0.33268650     0.13470
C1177       C  0.11805816  0.26062335  0.36508772    -0.12590
C1178       C  0.14829938  0.25999541  0.34842159    -0.14150
C1179       C  0.94556800  0.25570799  0.35155557    -0.12590
C1180       C  0.97616214  0.25734503  0.36724748    -0.14150
C1181       C  0.10291561  0.10870863  0.20838188    -0.12670
C1182       C  0.10985738  0.06974568  0.21022430     0.09480
C1183       C  0.14349303  0.05602094  0.22546381    -0.12670
C1184       C  0.17040739  0.08150210  0.23858245    -0.12670
C1185       C  0.16396766  0.12077615  0.23569785     0.09480
C1186       C  0.12970931  0.13406919  0.22110048    -0.12670
H1187       H  0.07674672  0.11946009  0.19655918     0.13470
H1188       H  0.14883065  0.02592996  0.22708153     0.13470
H1189       H  0.19681098  0.07046079  0.24948631     0.13470
H1190       H  0.12396743  0.16400695  0.21849678     0.13470
C1191       C  0.93910246  0.08721269  0.25257561    -0.12670
C1192       C  0.93506455  0.12199653  0.23401832     0.09480
C1193       C  0.95325841  0.12779772  0.19941002    -0.12670
C1194       C  0.97511408  0.09927758  0.18343941    -0.12670
C1195       C  0.97985736  0.06491050  0.20232173     0.09480
C1196       C  0.96189000  0.05897074  0.23704141    -0.12670
H1197       H  0.92467037  0.08199217  0.27903047     0.13470
H1198       H  0.94957719  0.15393447  0.18414734     0.13470
H1199       H  0.99005655  0.10474798  0.15729668     0.13470
H1200       H  0.96671022  0.03314722  0.25262853     0.13470
C1201       C  0.94710037  0.69994371  0.34490562    -0.12590
C1202       C  0.97811171  0.69773784  0.35987107    -0.14150
C1203       C  0.15095733  0.69669455  0.34035479    -0.12590
C1204       C  0.12055545  0.69547395  0.35676952    -0.14150
C1205       C  0.05530104  0.96014881  0.09738556    -0.12590
C1206       C  0.05492871  0.99136749  0.11036553    -0.14150
C1207       C  0.94318854  0.85851520  0.14229862    -0.12670
C1208       C  0.97811416  0.86775599  0.15776942     0.09480
C1209       C  0.98444404  0.86300066  0.19681514    -0.12670
C1210       C  0.95762907  0.84516414  0.21919308    -0.12670
C1211       C  0.92410371  0.83284498  0.20276145     0.09480
C1212       C  0.91649100  0.84056298  0.16477320    -0.12670
H1213       H  0.93786278  0.86237718  0.11249479     0.13470
H1214       H  0.01145030  0.87041594  0.20923616     0.13470
H1215       H  0.96377937  0.83931234  0.24854744     0.13470
H1216       H  0.89084938  0.83042041  0.15199725     0.13470
C1217       C  0.15676793  0.86014059  0.20917782    -0.12670
C1218       C  0.15580583  0.82139510  0.21747697     0.09480
C1219       C  0.12845146  0.79871780  0.19971932    -0.12670
C1220       C  0.10658549  0.81279347  0.17084834    -0.12670
C1221       C  0.10786001  0.85111595  0.16136848     0.09480
C1222       C  0.13239886  0.87503549  0.18173445    -0.12670
H1223       H  0.17753626  0.87840147  0.22226634     0.13470
H1224       H  0.12609575  0.76878374  0.20540581     0.13470
H1225       H  0.08865435  0.79313691  0.15576502     0.13470
H1226       H  0.13297237  0.90509983  0.17640371     0.13470
C1227       C  0.05112837  0.69345893  0.51275732    -0.12590
C1228       C  0.05120678  0.69375458  0.47853150    -0.14150
C1229       C  0.12362025  0.69002465  0.63179009    -0.12590
C1230       C  0.15461896  0.69014800  0.64690628    -0.14150
C1231       C  0.98141848  0.69781158  0.63425234    -0.12590
C1232       C  0.95115276  0.70029558  0.65078591    -0.14150
C1233       C  0.11021265  0.82491639  0.81428239    -0.12670
C1234       C  0.11380201  0.86421991  0.81646215     0.09480
C1235       C  0.14156271  0.88255629  0.79523701    -0.12670
C1236       C  0.16688929  0.86124144  0.77344265    -0.12670
C1237       C  0.16469275  0.82154382  0.77318810     0.09480
C1238       C  0.13491419  0.80383819  0.79239790    -0.12670
H1239       H  0.08798747  0.81052332  0.82960678     0.13470
H1240       H  0.14331603  0.91309010  0.79525308     0.13470
H1241       H  0.18883827  0.87567796  0.75787549     0.13470
H1242       H  0.13192324  0.77340888  0.79252981     0.13470
C1243       C  0.96783506  0.88937635  0.79128161    -0.12670
C1244       C  0.97964081  0.87877806  0.82761481     0.09480
C1245       C  0.96617569  0.84540237  0.84351676    -0.12670
C1246       C  0.94394388  0.82120684  0.82216351    -0.12670
C1247       C  0.93444158  0.83020777  0.78487476     0.09480
C1248       C  0.94491375  0.86529420  0.77007133    -0.12670
H1249       H  0.97892978  0.91469566  0.77832128     0.13470
H1250       H  0.97566348  0.83643876  0.87109883     0.13470
H1251       H  0.93405497  0.79535253  0.83472404     0.13470
H1252       H  0.93653265  0.87334619  0.74182193     0.13470
C1253       C  0.04795125  0.25665336  0.48655304    -0.12590
C1254       C  0.04708603  0.25569894  0.52075248    -0.14150
C1255       C  0.11672767  0.24979937  0.64132419    -0.12590
C1256       C  0.14730582  0.24783038  0.65710222    -0.14150
C1257       C  0.97463589  0.25360779  0.64082560    -0.12590
C1258       C  0.94436248  0.25255359  0.65742053    -0.14150
C1259       C  0.06168650  0.95440195  0.91039243    -0.12590
C1260       C  0.06041580  0.98820265  0.91020627    -0.14150
C1261       C  0.14312332  0.05731632  0.80189236    -0.12670
C1262       C  0.10851539  0.07382851  0.81191761     0.09480
C1263       C  0.10072610  0.11135344  0.80184209    -0.12670
C1264       C  0.12698140  0.13224816  0.78210060    -0.12670
C1265       C  0.16209746  0.11641770  0.77278754     0.09480
C1266       C  0.16981170  0.07852936  0.78216376    -0.12670
H1267       H  0.14940359  0.02831469  0.80928346     0.13470
H1268       H  0.07428803  0.12480994  0.80978898     0.13470
H1269       H  0.12030161  0.16136982  0.77553958     0.13470
H1270       H  0.19693531  0.06582140  0.77564805     0.13470
C1271       C  0.94672652  0.12531590  0.82527581    -0.12670
C1272       C  0.92878649  0.11515792  0.79159153     0.09480
C1273       C  0.93410059  0.07854925  0.77697758    -0.12670
C1274       C  0.95802262  0.05316026  0.79550864    -0.12670
C1275       C  0.97579122  0.06378356  0.82936963     0.09480
C1276       C  0.96906274  0.09963108  0.84462356    -0.12670
H1277       H  0.94386747  0.15344316  0.83629842     0.13470
H1278       H  0.92036905  0.06991047  0.75103566     0.13470
H1279       H  0.96438887  0.02613985  0.78248151     0.13470
H1280       H  0.98419006  0.10901102  0.86954418     0.13470
C1281       C  0.39651039  0.08297286  0.28440220    -0.12590
C1282       C  0.41139487  0.05187824  0.28458724    -0.14150
C1283       C  0.40763764  0.91001079  0.27664218    -0.12590
C1284       C  0.39127322  0.87978019  0.27408700    -0.14150
C1285       C  0.26197287  0.06032475  0.09345804    -0.12670
C1286       C  0.22390181  0.05084878  0.09959728     0.09480
C1287       C  0.20343954  0.06859387  0.12841936    -0.12670
C1288       C  0.22171022  0.09343139  0.15272292    -0.12670
C1289       C  0.26036401  0.10093702  0.14839452     0.09480
C1290       C  0.28007875  0.08564138  0.11759281    -0.12670
H1291       H  0.27814982  0.04633538  0.07145080     0.13470
H1292       H  0.17411490  0.06139963  0.13359734     0.13470
H1293       H  0.20567905  0.10707690  0.17473955     0.13470
H1294       H  0.30969335  0.09207850  0.11317929     0.13470
C1295       C  0.27094317  0.90983928  0.09385969    -0.12670
C1296       C  0.23135898  0.91393000  0.09618588     0.09480
C1297       C  0.21037278  0.89004540  0.11926679    -0.12670
C1298       C  0.22890150  0.86426114  0.14205187    -0.12670
C1299       C  0.26840683  0.86170203  0.14154039     0.09480
C1300       C  0.28948924  0.88330935  0.11628006    -0.12670
H1301       H  0.28745721  0.92844473  0.07614938     0.13470
H1302       H  0.17993746  0.89279854  0.12111034     0.13470
H1303       H  0.21251310  0.84591859  0.16002118     0.13470
H1304       H  0.32001658  0.88076915  0.11512423     0.13470
C1305       C  0.69947681  0.07903736  0.72821400    -0.12590
C1306       C  0.68384858  0.04858103  0.72577558    -0.14150
C1307       C  0.68997485  0.90749699  0.72377902    -0.12590
C1308       C  0.70714992  0.87769152  0.72503138    -0.14150
C1309       C  0.85275095  0.06115886  0.92019770    -0.12670
C1310       C  0.88022185  0.03843044  0.90269793     0.09480
C1311       C  0.88551176  0.04049695  0.86368438    -0.12670
C1312       C  0.86402214  0.06508727  0.84226334    -0.12670
C1313       C  0.83773154  0.08939761  0.85946493     0.09480
C1314       C  0.83162854  0.08674134  0.89864192    -0.12670
H1315       H  0.84703403  0.05835823  0.95009727     0.13470
H1316       H  0.90499734  0.02141888  0.84955083     0.13470
H1317       H  0.86822860  0.06512704  0.81206840     0.13470
H1318       H  0.81094573  0.10463879  0.91256167     0.13470
C1319       C  0.89023744  0.90273826  0.86224408    -0.12670
C1320       C  0.88464477  0.90364204  0.90125991     0.09480
C1321       C  0.85730883  0.88038962  0.91781680    -0.12670
C1322       C  0.83523089  0.85676097  0.89503388    -0.12670
C1323       C  0.83960351  0.85737236  0.85553583     0.09480
C1324       C  0.86760486  0.88040386  0.83958125    -0.12670
H1325       H  0.91035302  0.92162169  0.84906404     0.13470
H1326       H  0.85184821  0.88195198  0.94787995     0.13470
H1327       H  0.81435614  0.83871483  0.90812662     0.13470
H1328       H  0.87235685  0.88116185  0.80940925     0.13470
C1329       C  0.32823530  0.32332212  0.10280547    -0.12590
C1330       C  0.32927910  0.33873108  0.07210442    -0.14150
C1331       C  0.32541250  0.33532913  0.93055168    -0.12590
C1332       C  0.32336659  0.31835874  0.90057682    -0.14150
C1333       C  0.20081448  0.14439457  0.06307500    -0.12670
C1334       C  0.16175822  0.13864909  0.06575722     0.09480
C1335       C  0.14176625  0.15305208  0.09691616    -0.12670
C1336       C  0.16076789  0.17429245  0.12441706    -0.12670
C1337       C  0.19976588  0.18141654  0.12066525     0.09480
C1338       C  0.21945040  0.16597162  0.08973569    -0.12670
H1339       H  0.21680668  0.13305462  0.03945910     0.13470
H1340       H  0.11148590  0.14903270  0.09922905     0.13470
H1341       H  0.14504390  0.18514674  0.14838246     0.13470
H1342       H  0.24959171  0.17005798  0.08614478     0.13470
C1343       C  0.14012488  0.18080922  0.92582482    -0.12670
C1344       C  0.14537038  0.14154060  0.92940773     0.09480
C1345       C  0.17065829  0.12273730  0.90547846    -0.12670
C1346       C  0.19349223  0.14349104  0.88125031    -0.12670
C1347       C  0.19114036  0.18304264  0.88066793     0.09480
C1348       C  0.16282137  0.20153284  0.90124012    -0.12670
H1349       H  0.12073441  0.19569865  0.94439295     0.13470
H1350       H  0.17499566  0.09256797  0.90782590     0.13470
H1351       H  0.21363208  0.12883006  0.86344456     0.13470
H1352       H  0.15973313  0.23193710  0.89983476     0.13470
C1353       C  0.76795094  0.63404738  0.10042068    -0.12590
C1354       C  0.76716523  0.61866643  0.06942310    -0.14150
C1355       C  0.76992022  0.61413530  0.92640560    -0.12590
C1356       C  0.77166585  0.62860694  0.89512665    -0.14150
C1357       C  0.96829408  0.77383213  0.09764731    -0.12670
C1358       C  0.95391249  0.79651598  0.06888984     0.09480
C1359       C  0.91483069  0.80189348  0.06509712    -0.12670
C1360       C  0.89004440  0.78361276  0.08902928    -0.12670
C1361       C  0.90400456  0.76097299  0.11819796     0.09480
C1362       C  0.94342451  0.75647211  0.12259973    -0.12670
H1363       H  0.99840720  0.76843508  0.09976692     0.13470
H1364       H  0.90351377  0.81827647  0.04189164     0.13470
H1365       H  0.85998767  0.78734100  0.08475333     0.13470
H1366       H  0.95505547  0.73943062  0.14511028     0.13470
C1367       C  0.97004510  0.75624669  0.90830497    -0.12670
C1368       C  0.95397428  0.77216821  0.94068919     0.09480
C1369       C  0.91497149  0.76875139  0.94738563    -0.12670
C1370       C  0.89184560  0.75113861  0.92129781    -0.12670
C1371       C  0.90720929  0.73697453  0.88766649     0.09480
C1372       C  0.94677290  0.73817745  0.88205549    -0.12670
H1373       H  0.00019045  0.75826002  0.90318403     0.13470
H1374       H  0.90219188  0.78075142  0.97257432     0.13470
H1375       H  0.86167113  0.75053632  0.92664265     0.13470
H1376       H  0.95945913  0.72748804  0.85628527     0.13470
C1377       C  0.53233112  0.97256824  0.71853235    -0.12590
C1378       C  0.56655379  0.97335622  0.71956552    -0.14150
C1379       C  0.41202259  0.04361300  0.71845499    -0.12590
C1380       C  0.39652280  0.07441960  0.72037492    -0.14150
C1381       C  0.41235446  0.90122427  0.71515811    -0.12590
C1382       C  0.39710232  0.87033562  0.71580123    -0.14150
C1383       C  0.13985790  0.97654420  0.98190346    -0.12590
C1384       C  0.13952892  0.97898478  0.01562164    -0.14150
C1385       C  0.27460402  0.08566369  0.89185734    -0.12670
C1386       C  0.27640108  0.08207322  0.85219740     0.09480
C1387       C  0.25786951  0.05183921  0.83453742    -0.12670
C1388       C  0.23638373  0.02708491  0.85550912    -0.12670
C1389       C  0.23410653  0.03088495  0.89482513     0.09480
C1390       C  0.25355132  0.05999855  0.91314375    -0.12670
H1391       H  0.28821537  0.10898921  0.90624047     0.13470
H1392       H  0.25856488  0.04803884  0.80419966     0.13470
H1393       H  0.22189963  0.00427579  0.84104732     0.13470
H1394       H  0.25262921  0.06263316  0.94360506     0.13470
C1395       C  0.24184949  0.87129164  0.91250780    -0.12670
C1396       C  0.21845726  0.89853975  0.89596523     0.09480
C1397       C  0.21562015  0.90058478  0.85661876    -0.12670
C1398       C  0.23768039  0.87750270  0.83390995    -0.12670
C1399       C  0.26112953  0.84994083  0.84989381     0.09480
C1400       C  0.26266348  0.84657824  0.88952657    -0.12670
H1401       H  0.24531635  0.87037385  0.94286826     0.13470
H1402       H  0.19888113  0.92263538  0.84353240     0.13470
H1403       H  0.23638924  0.88137095  0.80371209     0.13470
H1404       H  0.28018029  0.82525613  0.90270849     0.13470
C1405       C  0.56407887  0.97876266  0.28080975    -0.12590
C1406       C  0.52982260  0.97826721  0.28091918    -0.14150
C1407       C  0.68402756  0.05061241  0.27766641    -0.12590
C1408       C  0.70026313  0.08089688  0.27594440    -0.14150
C1409       C  0.70058870  0.87821486  0.28060477    -0.12590
C1410       C  0.68492333  0.90888565  0.28158646    -0.14150
C1411       C  0.96638038  0.97425869  0.02319077    -0.12590
C1412       C  0.96748188  0.97270492  0.98945263    -0.14150
C1413       C  0.84487923  0.06808679  0.08580934    -0.12670
C1414       C  0.87973588  0.05364993  0.09829746     0.09480
C1415       C  0.89331277  0.06351744  0.13397403    -0.12670
C1416       C  0.87107854  0.08507437  0.15812793    -0.12670
C1417       C  0.83549649  0.09833814  0.14656259     0.09480
C1418       C  0.82309055  0.09099132  0.10966094    -0.12670
H1419       H  0.83351800  0.05951684  0.05871353     0.13470
H1420       H  0.91939700  0.05134933  0.14448362     0.13470
H1421       H  0.88157585  0.09107477  0.18613394     0.13470
H1422       H  0.79616536  0.10182912  0.09986610     0.13470
C1423       C  0.86417779  0.92362227  0.14658471    -0.12670
C1424       C  0.86991086  0.91934394  0.10770575     0.09480
C1425       C  0.85319726  0.88912639  0.08836156    -0.12670
C1426       C  0.83136530  0.86293779  0.10827132    -0.12670
C1427       C  0.82663618  0.86672767  0.14760297     0.09480
C1428       C  0.84228378  0.89812498  0.16616454    -0.12670
H1429       H  0.87652299  0.94717363  0.16182066     0.13470
H1430       H  0.85661184  0.88616796  0.05810359     0.13470
H1431       H  0.81925128  0.83924910  0.09321701     0.13470
H1432       H  0.83930558  0.90218063  0.19634516     0.13470
C1433       C  0.76893449  0.49664161  0.00146138    -0.12590
C1434       C  0.76932500  0.46245575  0.00278317    -0.14150
C1435       C  0.77288390  0.32773713  0.10702745    -0.12590
C1436       C  0.77149797  0.34430181  0.07707214    -0.14150
C1437       C  0.77125357  0.33928807  0.93650501    -0.12590
C1438       C  0.77270310  0.32169225  0.90700407    -0.14150
C1439       C  0.03293719  0.05859677  0.00769009    -0.12590
C1440       C  0.06664191  0.05636956  0.00559068    -0.14150
C1441       C  0.91114762  0.14553094  0.07318473    -0.12670
C1442       C  0.95029808  0.15089220  0.07296962     0.09480
C1443       C  0.96656318  0.17827135  0.09647533    -0.12670
C1444       C  0.94348570  0.20017579  0.12015327    -0.12670
C1445       C  0.90394365  0.19539262  0.11967354     0.09480
C1446       C  0.88817901  0.16780385  0.09587660    -0.12670
H1447       H  0.89818370  0.12545180  0.05400485     0.13470
H1448       H  0.99671407  0.18356422  0.09543953     0.13470
H1449       H  0.95646439  0.22082197  0.13865014     0.13470
H1450       H  0.85797572  0.16296487  0.09500907     0.13470
C1451       C  0.96815681  0.17987282  0.91859700    -0.12670
C1452       C  0.95366158  0.14935852  0.93909933     0.09480
C1453       C  0.91577345  0.13918773  0.93527527    -0.12670
C1454       C  0.89221963  0.15962278  0.91185586    -0.12670
C1455       C  0.90637217  0.18934680  0.89010502     0.09480
C1456       C  0.94465482  0.19956787  0.89364625    -0.12670
H1457       H  0.99708789  0.18898091  0.92274897     0.13470
H1458       H  0.90384637  0.11700452  0.95255410     0.13470
H1459       H  0.86273379  0.15209748  0.91073326     0.13470
H1460       H  0.95624640  0.22247263  0.87716145     0.13470
C1461       C  0.33082903  0.45760350  0.99905419    -0.12590
C1462       C  0.33152600  0.49186260  0.99841886    -0.14150
C1463       C  0.33070256  0.61535568  0.06518254    -0.12590
C1464       C  0.32896678  0.63248359  0.09515019    -0.14150
C1465       C  0.33455977  0.60939266  0.92343294    -0.12590
C1466       C  0.33373326  0.62443141  0.89251553    -0.14150
C1467       C  0.03129497  0.87808273  0.98849376    -0.12590
C1468       C  0.06463993  0.88371107  0.98784656    -0.14150
C1469       C  0.14180171  0.79248119  0.08485095    -0.12670
C1470       C  0.16243962  0.81659571  0.06117283     0.09480
C1471       C  0.20183836  0.81721686  0.06355767    -0.12670
C1472       C  0.22063472  0.79247141  0.08712530    -0.12670
C1473       C  0.20056232  0.76735340  0.11044333     0.09480
C1474       C  0.16080986  0.76823143  0.10979227    -0.12670
H1475       H  0.11129876  0.79084249  0.08242219     0.13470
H1476       H  0.21824503  0.83504734  0.04491732     0.13470
H1477       H  0.25123982  0.79365834  0.08721698     0.13470
H1478       H  0.14458783  0.74972124  0.12782710     0.13470
C1479       C  0.16454491  0.81553909  0.89292658    -0.12670
C1480       C  0.15372951  0.79729204  0.92600058     0.09480
C1481       C  0.16117882  0.75836726  0.93026367    -0.12670
C1482       C  0.18268955  0.73903246  0.90344360    -0.12670
C1483       C  0.19620020  0.75847563  0.87212933     0.09480
C1484       C  0.18600773  0.79615327  0.86630828    -0.12670
H1485       H  0.15880713  0.84530468  0.88896618     0.13470
H1486       H  0.15226321  0.74356360  0.95543190     0.13470
H1487       H  0.18995261  0.70962876  0.90778820     0.13470
H1488       H  0.19605201  0.81095647  0.84178432     0.13470
loop_ 
_geom_bond_atom_site_label_1 
_geom_bond_atom_site_label_2 
_geom_bond_distance 
_geom_bond_site_symmetry_2 
_ccdc_geom_bond_type 
C1            C2   1.387       .  A
C1            C6   1.398       .  A
C1         C1480   1.465       .  S
C2            C3   1.389   1_556  A
C2            H7   1.085       .  S
C3            C4   1.399       .  A
C3         C1470   1.463       .  S
C4            C5   1.407   1_554  A
C4            H8   1.080       .  S
C5            C6   1.403       .  A
C5         C1468   1.426       .  S
C6            H9   1.084       .  S
C10          C11   1.415   1_554  A
C10          C15   1.407       .  A
C10        C1463   1.466       .  S
C11          C12   1.416       .  A
C11          H16   1.084       .  S
C12          C13   1.405       .  A
C12        C1465   1.464       .  S
C13          C14   1.405       .  A
C13          H17   1.085       .  S
C14          C15   1.406   1_556  A
C14        C1462   1.453       .  S
C15          H18   1.084       .  S
C19          C20   1.389       .  A
C19          C24   1.399       .  A
C19        C1442   1.456       .  S
C20          C21   1.388   1_554  A
C20          H25   1.087       .  S
C21          C22   1.396       .  A
C21        C1452   1.452       .  S
C22          C23   1.403   1_656  A
C22          H26   1.085       .  S
C23          C24   1.405   1_455  A
C23        C1439   1.425       .  S
C24          H27   1.084       .  S
C28          C29   1.409   1_556  A
C28          C33   1.404       .  A
C28        C1437   1.455       .  S
C29          C30   1.410       .  A
C29          H34   1.084       .  S
C30          C31   1.405       .  A
C30        C1436   1.456       .  S
C31          C32   1.405       .  A
C31          H35   1.084       .  S
C32          C33   1.404   1_554  A
C32        C1434   1.449       .  S
C33          H36   1.085       .  S
C37          C38   1.388       .  A
C37          C42   1.400       .  A
C37        C1424   1.461       .  S
C38          C39   1.386   1_565  A
C38          H43   1.087       .  S
C39          C40   1.396       .  A
C39        C1414   1.454       .  S
C40          C41   1.405   1_545  A
C40          H44   1.082       .  S
C41          C42   1.407       .  A
C41        C1411   1.426       .  S
C42          H45   1.084       .  S
C46          C47   1.415   1_545  A
C46          C51   1.405       .  A
C46        C1407   1.462       .  S
C47          C48   1.415       .  A
C47          H52   1.084       .  S
C48          C49   1.403       .  A
C48        C1410   1.459       .  S
C49          C50   1.402       .  A
C49          H53   1.085       .  S
C50          C51   1.405   1_565  A
C50        C1405   1.448       .  S
C51          H54   1.084       .  S
C55          C56   1.385   1_545  A
C55          C60   1.399       .  A
C55        C1389   1.459       .  S
C56          C57   1.386       .  A
C56          H61   1.087       .  S
C57          C58   1.398       .  A
C57        C1396   1.455       .  S
C58          C59   1.406       .  A
C58          H62   1.082       .  S
C59          C60   1.407   1_565  A
C59        C1383   1.427       .  S
C60          H63   1.084       .  S
C64          C65   1.418       .  A
C64          C69   1.405       .  A
C64        C1381   1.465       .  S
C65          C66   1.418   1_565  A
C65          H70   1.084       .  S
C66          C67   1.403       .  A
C66        C1379   1.464       .  S
C67          C68   1.403   1_545  A
C67          H71   1.085       .  S
C68          C69   1.404       .  A
C68        C1377   1.447       .  S
C69          H72   1.085       .  S
C73          C74   1.394       .  A
C73          C78   1.387       .  A
C73        C1358   1.445       .  S
C74          C75   1.399   1_654  A
C74          H79   1.082       .  S
C75          C76   1.405   1_455  A
C75        C1467   1.425       .  S
C76          C77   1.402       .  A
C76          H80   1.083       .  S
C77          C78   1.387   1_556  A
C77        C1368   1.460       .  S
C78          H81   1.087       .  S
C82          C83   1.404       .  A
C82          C87   1.421   1_554  A
C82        C1354   1.469       .  S
C83          C84   1.403       .  A
C83          H88   1.085       .  S
C84          C85   1.404   1_554  A
C84        C1433   1.449       .  S
C85          C86   1.405       .  A
C85          H89   1.085       .  S
C86          C87   1.421       .  A
C86        C1355   1.470       .  S
C87          H90   1.083       .  S
C91          C92   1.399       .  A
C91          C96   1.390       .  A
C91        C1344   1.463       .  S
C92          C93   1.407   1_556  A
C92          H97   1.084       .  S
C93          C94   1.404       .  A
C93        C1440   1.426       .  S
C94          C95   1.398       .  A
C94          H98   1.085       .  S
C95          C96   1.392   1_554  A
C95        C1334   1.467       .  S
C96          H99   1.086       .  S
C100        C101   1.406       .  A
C100        C105   1.414   1_556  A
C100       C1331   1.463       .  S
C101        C102   1.406       .  A
C101        H106   1.084       .  S
C102        C103   1.405   1_556  A
C102       C1461   1.453       .  S
C103        C104   1.405       .  A
C103        H107   1.084       .  S
C104        C105   1.414       .  A
C104       C1330   1.462       .  S
C105        H108   1.084       .  S
C109        C110   1.397       .  A
C109        C114   1.388       .  A
C109       C1320   1.454       .  S
C110        C111   1.405       .  A
C110        H115   1.084       .  S
C111        C112   1.408   1_565  A
C111       C1412   1.427       .  S
C112        C113   1.399       .  A
C112        H116   1.084       .  S
C113        C114   1.386   1_545  A
C113       C1310   1.459       .  S
C114        H117   1.087       .  S
C118        C119   1.403       .  A
C118        C123   1.412   1_545  A
C118       C1306   1.456       .  S
C119        C120   1.404   1_545  A
C119        H124   1.085       .  S
C120        C121   1.404       .  A
C120       C1378   1.447       .  S
C121        C122   1.404       .  A
C121        H125   1.084       .  S
C122        C123   1.412       .  A
C122       C1307   1.458       .  S
C123        H126   1.084       .  S
C127        C128   1.397       .  A
C127        C132   1.388   1_545  A
C127       C1286   1.457       .  S
C128        C129   1.402   1_545  A
C128        H133   1.076       .  S
C129        C130   1.402       .  A
C129       C1384   1.427       .  S
C130        C131   1.399       .  A
C130        H134   1.084       .  S
C131        C132   1.389       .  A
C131       C1296   1.458       .  S
C132        H135   1.086       .  S
C136        C137   1.406       .  A
C136        C141   1.416       .  A
C136       C1283   1.465       .  S
C137        C138   1.405       .  A
C137        H142   1.084       .  S
C138        C139   1.402   1_565  A
C138       C1406   1.448       .  S
C139        C140   1.402       .  A
C139        H143   1.085       .  S
C140        C141   1.416   1_545  A
C140       C1282   1.461       .  S
C141        H144   1.084       .  S
C145        C146   1.386       .  A
C145        C150   1.399       .  A
C145       C1275   1.456   1_455  S
C146        C147   1.390       .  A
C146        H151   1.086       .  S
C147        C148   1.400       .  A
C147       C1262   1.463       .  S
C148        C149   1.404       .  A
C148        H152   1.084       .  S
C149        C150   1.407       .  A
C149       C1260   1.427   1_545  S
C150        H153   1.084   1_455  S
C154        C155   1.415       .  A
C154        C159   1.407       .  A
C154       C1257   1.465   1_455  S
C155        C156   1.415       .  A
C155        H160   1.084       .  S
C156        C157   1.403       .  A
C156       C1255   1.461       .  S
C157        C158   1.403       .  A
C157        H161   1.085       .  S
C158        C159   1.407       .  A
C158       C1254   1.451       .  S
C159        H162   1.084   1_455  S
C163        C164   1.401       .  A
C163        C168   1.385       .  A
C163       C1234   1.458       .  S
C164        C165   1.407       .  A
C164        H169   1.084       .  S
C165        C166   1.407       .  A
C165       C1259   1.428       .  S
C166        C167   1.397       .  A
C166        H170   1.084   1_455  S
C167        C168   1.385       .  A
C167       C1244   1.454   1_455  S
C168        H171   1.087       .  S
C172        C173   1.406       .  A
C172        C177   1.416       .  A
C172       C1231   1.466   1_455  S
C173        C174   1.406       .  A
C173        H178   1.084   1_455  S
C174        C175   1.403       .  A
C174       C1227   1.451       .  S
C175        C176   1.404       .  A
C175        H179   1.085       .  S
C176        C177   1.416       .  A
C176       C1229   1.463       .  S
C177        H180   1.084       .  S
C181        C182   1.396       .  A
C181        C186   1.404       .  A
C181       C1221   1.482       .  S
C182        C183   1.385       .  A
C182        H187   1.082       .  S
C183        C184   1.392       .  A
C183       C1208   1.463   1_455  S
C184        C185   1.403       .  A
C184        H188   1.084   1_455  S
C185        C186   1.406       .  A
C185       C1205   1.423       .  S
C186        H189   1.084       .  S
C190        C191   1.407       .  A
C190        C195   1.417       .  A
C190       C1204   1.467       .  S
C191        C192   1.406       .  A
C191        H196   1.084       .  S
C192        C193   1.403       .  A
C192       C1228   1.451       .  S
C193        C194   1.404       .  A
C193        H197   1.085   1_455  S
C194        C195   1.417       .  A
C194       C1202   1.464   1_455  S
C195        H198   1.084       .  S
C199        C200   1.400       .  A
C199        C204   1.389       .  A
C199       C1195   1.454   1_455  S
C200        C201   1.402       .  A
C200        H205   1.084   1_455  S
C201        C202   1.398       .  A
C201       C1206   1.424   1_545  S
C202        C203   1.396       .  A
C202        H206   1.085       .  S
C203        C204   1.389       .  A
C203       C1182   1.451       .  S
C204        H207   1.087       .  S
C208        C209   1.407       .  A
C208        C213   1.414       .  A
C208       C1177   1.464       .  S
C209        C210   1.407       .  A
C209        H214   1.084       .  S
C210        C211   1.403       .  A
C210       C1253   1.450       .  S
C211        C212   1.403       .  A
C211        H215   1.085   1_455  S
C212        C213   1.414       .  A
C212       C1180   1.459   1_455  S
C213        H216   1.084       .  S
C217        C218   1.395       .  A
C217        C222   1.386       .  A
C217       C1158   1.455       .  S
C218        C219   1.405       .  A
C218        H223   1.084       .  S
C219        C220   1.409       .  A
C219       C1155   1.425       .  S
C220        C221   1.401       .  A
C220        H224   1.084       .  S
C221        C222   1.388       .  A
C221       C1171   1.471       .  S
C222        H225   1.086       .  S
C226        C227   1.417       .  A
C226        C231   1.403       .  A
C226       C1154   1.464       .  S
C227        C228   1.417       .  A
C227        H232   1.084       .  S
C228        C229   1.408       .  A
C228       C1151   1.468       .  S
C229        C230   1.407       .  A
C229        H233   1.084       .  S
C230        C231   1.403       .  A
C230       C1149   1.451       .  S
C231        H234   1.085       .  S
O235       Zr271   2.410       .  S
O235        C246   1.290       .  A
O236       Zr270   2.486       .  S
O236        C247   1.299       .  A
O237       Zr243   2.478       .  S
O237        C248   1.298       .  A
O238       Zr243   2.394       .  S
O238        C249   1.287       .  A
O239       Zr273   2.449       .  S
O239        C249   1.295       .  A
O240       Zr272   2.451       .  S
O240        C248   1.291       .  A
O241       Zr243   2.438       .  S
O241        C247   1.289       .  A
O242       Zr243   2.465       .  S
O242        C246   1.298       .  A
Zr243       O244   2.382       .  S
Zr243       O245   2.372       .  S
Zr243       O253   2.333       .  S
Zr243       O251   2.361       .  S
O244       Zr270   2.301       .  S
O244       Zr273   2.374       .  S
O245       Zr271   2.379       .  S
O245       Zr272   2.302       .  S
C246       C1473   1.479       .  S
C247       C1203   1.462       .  S
C248       C1152   1.463       .  S
C249       C1218   1.474       .  S
H250        O251   0.966       .  S
O251       Zr270   2.349       .  S
O251       Zr272   2.357       .  S
H252        O253   0.959       .  S
O253       Zr271   2.338       .  S
O253       Zr273   2.329       .  S
O254       Zr270   2.416       .  S
O254        C277   1.285       .  A
O255       Zr271   2.474       .  S
O255        C278   1.296       .  A
O256       Zr272   2.415       .  S
O256        C279   1.284       .  A
O257       Zr273   2.486       .  S
O257        C280   1.299       .  A
O258       Zr273   2.432       .  S
O258        C281   1.293       .  A
O259       Zr272   2.483       .  S
O259        C282   1.298       .  A
O260       Zr274   2.420       .  S
O260        C283   1.285       .  A
O261       Zr274   2.485       .  S
O261        C284   1.298       .  A
O262       Zr272   2.405       .  S
O262        C283   1.281       .  A
O263       Zr273   2.438       .  S
O263        C284   1.289       .  A
O264       Zr270   2.412       .  S
O264        C279   1.282       .  A
O265       Zr271   2.439       .  S
O265        C282   1.289       .  A
O266       Zr271   2.419       .  S
O266        C281   1.289       .  A
O267       Zr270   2.434       .  S
O267        C280   1.287       .  A
O268       Zr274   2.406       .  S
O268        C277   1.281       .  A
O269       Zr274   2.434       .  S
O269        C278   1.287       .  A
Zr270       O276   2.359       .  S
Zr270       O288   2.356       .  S
Zr271       O275   2.374       .  S
Zr271       O286   2.342       .  S
Zr272       O276   2.366       .  S
Zr272       O286   2.349       .  S
Zr273       O275   2.387       .  S
Zr273       O288   2.354       .  S
Zr274       O275   2.302       .  S
Zr274       O276   2.362       .  S
Zr274       O288   2.346       .  S
Zr274       O286   2.360       .  S
C277       C1138   1.469       .  S
C278       C1135   1.454       .  S
C279       C1161   1.472       .  S
C280       C1147   1.459       .  S
C281       C1299   1.447       .  S
C282       C1464   1.461       .  S
C283       C1126   1.457       .  S
C284       C1284   1.461       .  S
H285        O286   0.966       .  S
H287        O288   0.966       .  S
C289        C290   1.406       .  A
C289        C294   1.406       .  A
C289       C1116   1.474       .  S
C290        C291   1.404       .  A
C290        H295   1.084       .  S
C291        C292   1.403       .  A
C291       C1106   1.472       .  S
C292        C293   1.386       .  A
C292        H296   1.085       .  S
C293        C294   1.385       .  A
C293       C1104   1.426       .  S
C294        H297   1.084       .  S
C298        C299   1.413       .  A
C298        C303   1.409       .  A
C298       C1101   1.465       .  S
C299        C300   1.413       .  A
C299        H304   1.084       .  S
C300        C301   1.403       .  A
C300       C1099   1.459       .  S
C301        C302   1.404       .  A
C301        H305   1.085       .  S
C302        C303   1.409       .  A
C302       C1098   1.454   1_545  S
C303        H306   1.084       .  S
O307       Zr343   2.432       .  S
O307        C318   1.294       .  A
O308       Zr342   2.485       .  S
O308        C319   1.299       .  A
O309       Zr315   2.494       .  S
O309        C320   1.301       .  A
O310       Zr315   2.457       .  S
O310        C321   1.297       .  A
O311       Zr345   2.414       .  S
O311        C321   1.288       .  A
O312       Zr344   2.440       .  S
O312        C320   1.288       .  A
O313       Zr315   2.434       .  S
O313        C319   1.289       .  A
O314       Zr315   2.416       .  S
O314        C318   1.290       .  A
Zr315       O316   2.381       .  S
Zr315       O317   2.376       .  S
Zr315       O325   2.335       .  S
Zr315       O323   2.354       .  S
O316       Zr342   2.313       .  S
O316       Zr345   2.372       .  S
O317       Zr343   2.377       .  S
O317       Zr344   2.299       .  S
C318       C1386   1.470       .  S
C319       C1332   1.458       .  S
C320       C1083   1.465       .  S
C321       C1347   1.457       .  S
H322        O323   0.966       .  S
O323       Zr342   2.347       .  S
O323       Zr344   2.354       .  S
H324        O325   0.960       .  S
O325       Zr343   2.332       .  S
O325       Zr345   2.338       .  S
O326       Zr342   2.447       .  S
O326        C349   1.288       .  A
O327       Zr343   2.478       .  S
O327        C350   1.297       .  A
O328       Zr344   2.422       .  S
O328        C351   1.286       .  A
O329       Zr345   2.490       .  S
O329        C352   1.300       .  A
O330       Zr345   2.432       .  S
O330        C353   1.294       .  A
O331       Zr344   2.496       .  S
O331        C354   1.301       .  A
O332       Zr346   2.419       .  S
O332        C355   1.283       .  A
O333       Zr346   2.488       .  S
O333        C356   1.299       .  A
O334       Zr344   2.401       .  S
O334        C355   1.281       .  A
O335       Zr345   2.424       .  S
O335        C356   1.286       .  A
O336       Zr342   2.394       .  S
O336        C351   1.280       .  A
O337       Zr343   2.421       .  S
O337        C354   1.286       .  A
O338       Zr343   2.412       .  S
O338        C353   1.289       .  A
O339       Zr342   2.426       .  S
O339        C352   1.286       .  A
O340       Zr346   2.384       .  S
O340        C349   1.276       .  A
O341       Zr346   2.430       .  S
O341        C350   1.287       .  A
Zr342       O348   2.355       .  S
Zr342       O360   2.355       .  S
Zr343       O347   2.374       .  S
Zr343       O358   2.355       .  S
Zr344       O348   2.361       .  S
Zr344       O358   2.348       .  S
Zr345       O347   2.380       .  S
Zr345       O360   2.349       .  S
Zr346       O347   2.292       .  S
Zr346       O348   2.366       .  S
Zr346       O360   2.342       .  S
Zr346       O358   2.360       .  S
C349       C1086   1.457       .  S
C350       C1100   1.454       .  S
C351       C1074   1.466       .  S
C352       C1096   1.457       .  S
C353       C1265   1.463       .  S
C354       C1380   1.459       .  S
C355       C1109   1.469       .  S
C356       C1256   1.457       .  S
H357        O358   0.966       .  S
H359        O360   0.966       .  S
C361        C362   1.386       .  A
C361        C366   1.400       .  A
C361       C1141   1.455       .  S
C362        C363   1.386       .  A
C362        H367   1.087       .  S
C363        C364   1.396       .  A
C363       C1064   1.453       .  S
C364        C365   1.405       .  A
C364        H368   1.082       .  S
C365        C366   1.404       .  A
C365       C1061   1.426       .  S
C366        H369   1.084       .  S
C370        C371   1.417       .  A
C370        C375   1.409       .  A
C370       C1060   1.469       .  S
C371        C372   1.417       .  A
C371        H376   1.084       .  S
C372        C373   1.404       .  A
C372       C1148   1.464       .  S
C373        C374   1.404       .  A
C373        H377   1.085       .  S
C374        C375   1.408       .  A
C374       C1097   1.454       .  S
C375        H378   1.084       .  S
C379        C380   1.399       .  A
C379        C384   1.389       .  A
C379       C1089   1.457       .  S
C380        C381   1.403       .  A
C380        H385   1.084       .  S
C381        C382   1.405       .  A
C381       C1156   1.427       .  S
C382        C383   1.398       .  A
C382        H386   1.085       .  S
C383        C384   1.389       .  A
C383       C1050   1.458       .  S
C384        H387   1.086       .  S
C388        C389   1.416       .  A
C388        C393   1.403       .  A
C388       C1095   1.462       .  S
C389        C390   1.416       .  A
C389        H394   1.084       .  S
C390        C391   1.406       .  A
C390       C1047   1.465       .  S
C391        C392   1.405       .  A
C391        H395   1.084       .  S
C392        C393   1.403       .  A
C392       C1045   1.449       .  S
C393        H396   1.085       .  S
O397       Zr433   2.430       .  S
O397        C408   1.285       .  A
O398       Zr432   2.485       .  S
O398        C409   1.298       .  A
O399       Zr405   2.411       .  S
O399        C410   1.284       .  A
O400       Zr405   2.486       .  S
O400        C411   1.298       .  A
O401       Zr435   2.432       .  S
O401        C411   1.288       .  A
O402       Zr434   2.414       .  S
O402        C410   1.283       .  A
O403       Zr405   2.431       .  S
O403        C409   1.287       .  A
O404       Zr405   2.394       .  S
O404        C408   1.278       .  A
Zr405       O406   2.294       .  S
Zr405       O407   2.361       .  S
Zr405       O415   2.346       .  S
Zr405       O413   2.357       .  S
O406       Zr432   2.378       .  S
O406       Zr435   2.381       .  S
O407       Zr433   2.364       .  S
O407       Zr434   2.361       .  S
C408       C1483   1.446       .  S
C409       C1230   1.458       .  S
C410       C1237   1.471       .  S
C411       C1048   1.460       .  S
H412        O413   0.966       .  S
O413       Zr432   2.350       .  S
O413       Zr434   2.347       .  S
H414        O415   0.966       .  S
O415       Zr433   2.360       .  S
O415       Zr435   2.353       .  S
O416       Zr432   2.438       .  S
O416        C439   1.295       .  A
O417       Zr433   2.496       .  S
O417        C440   1.300       .  A
O418       Zr434   2.491       .  S
O418        C441   1.300       .  A
O419       Zr435   2.430       .  S
O419        C442   1.293       .  A
O420       Zr435   2.484       .  S
O420        C443   1.299       .  A
O421       Zr434   2.426       .  S
O421        C444   1.286       .  A
O422       Zr436   2.488       .  S
O422        C445   1.299       .  A
O423       Zr436   2.436       .  S
O423        C446   1.293       .  A
O424       Zr434   2.435       .  S
O424        C445   1.288       .  A
O425       Zr435   2.422       .  S
O425        C446   1.290       .  A
O426       Zr432   2.438       .  S
O426        C441   1.289       .  A
O427       Zr433   2.401       .  S
O427        C444   1.281       .  A
O428       Zr433   2.434       .  S
O428        C443   1.287       .  A
O429       Zr432   2.425       .  S
O429        C442   1.291       .  A
O430       Zr436   2.421       .  S
O430        C439   1.290       .  A
O431       Zr436   2.431       .  S
O431        C440   1.288       .  A
Zr432       O438   2.382       .  S
Zr432       O450   2.330       .  S
Zr433       O437   2.306       .  S
Zr433       O448   2.348       .  S
Zr434       O438   2.309       .  S
Zr434       O448   2.362       .  S
Zr435       O437   2.376       .  S
Zr435       O450   2.331       .  S
Zr436       O437   2.382       .  S
Zr436       O438   2.377       .  S
Zr436       O450   2.337       .  S
Zr436       O448   2.358       .  S
C439       C1067   1.469       .  S
C440       C1043   1.463       .  S
C441       C1059   1.464       .  S
C442       C1053   1.472       .  S
C443       C1466   1.458       .  S
C444       C1399   1.471       .  S
C445       C1382   1.460       .  S
C446       C1034   1.448       .  S
H447        O448   0.966       .  S
H449        O450   0.959       .  S
C451        C452   1.396       .  A
C451        C456   1.389       .  A
C451       C1014   1.445       .  S
C452        C453   1.396       .  A
C452        H457   1.084       .  S
C453        C454   1.402       .  A
C453       C1011   1.425       .  S
C454        C455   1.405       .  A
C454        H458   1.084       .  S
C455        C456   1.388       .  A
C455       C1024   1.467       .  S
C456        H459   1.085       .  S
C460        C461   1.405       .  A
C460        C465   1.419       .  A
C460       C1007   1.467       .  S
C461        C462   1.404       .  A
C461        H466   1.085       .  S
C462        C463   1.406       .  A
C462       C1150   1.451   1_655  S
C463        C464   1.406       .  A
C463        H467   1.084       .  S
C464        C465   1.419       .  A
C464       C1010   1.469       .  S
C465        H468   1.084       .  S
C469        C470   1.389       .  A
C469        C474   1.402       .  A
C469        C998   1.458       .  S
C470        C471   1.386       .  A
C470        H475   1.086       .  S
C471        C472   1.396       .  A
C471       C1129   1.449       .  S
C472        C473   1.399       .  A
C472        H476   1.083       .  S
C473        C474   1.407       .  A
C473        C995   1.428       .  S
C474        H477   1.084       .  S
C478        C479   1.414       .  A
C478        C483   1.406       .  A
C478        C993   1.461       .  S
C479        C480   1.413       .  A
C479        H484   1.084       .  S
C480        C481   1.404       .  A
C480       C1136   1.459       .  S
C481        C482   1.403       .  A
C481        H485   1.085       .  S
C482        C483   1.405       .  A
C482        C991   1.449       .  S
C483        H486   1.084       .  S
O487       Zr523   2.401       .  S
O487        C498   1.283       .  A
O488       Zr522   2.499       .  S
O488        C499   1.302       .  A
O489       Zr495   2.428       .  S
O489        C500   1.286       .  A
O490       Zr495   2.483       .  S
O490        C501   1.298       .  A
O491       Zr525   2.431       .  S
O491        C501   1.288       .  A
O492       Zr524   2.382       .  S
O492        C500   1.278       .  A
O493       Zr495   2.433       .  S
O493        C499   1.287       .  A
O494       Zr495   2.422       .  S
O494        C498   1.284       .  A
Zr495       O496   2.315       .  S
Zr495       O497   2.361       .  S
Zr495       O505   2.345       .  S
Zr495       O503   2.360       .  S
O496       Zr522   2.371       .  S
O496       Zr525   2.375       .  S
O497       Zr523   2.365       .  S
O497       Zr524   2.365       .  S
C498       C1427   1.472       .  S
C499       C1353   1.464       .  S
C500       C1361   1.464       .  S
C501        C994   1.456       .  S
H502        O503   0.966       .  S
O503       Zr522   2.356       .  S
O503       Zr524   2.344       .  S
H504        O505   0.966       .  S
O505       Zr523   2.358       .  S
O505       Zr525   2.356       .  S
O506       Zr522   2.448       .  S
O506        C529   1.294       .  A
O507       Zr523   2.502       .  S
O507        C530   1.301       .  A
O508       Zr524   2.501       .  S
O508        C531   1.301       .  A
O509       Zr525   2.450       .  S
O509        C532   1.296       .  A
O510       Zr525   2.481       .  S
O510        C533   1.298       .  A
O511       Zr524   2.425       .  S
O511        C534   1.284       .  A
O512       Zr526   2.488       .  S
O512        C535   1.299       .  A
O513       Zr526   2.434       .  S
O513        C536   1.294       .  A
O514       Zr524   2.430       .  S
O514        C535   1.287       .  A
O515       Zr525   2.406       .  S
O515        C536   1.288       .  A
O516       Zr522   2.424       .  S
O516        C531   1.286       .  A
O517       Zr523   2.403       .  S
O517        C534   1.279       .  A
O518       Zr523   2.430       .  S
O518        C533   1.287       .  A
O519       Zr522   2.413       .  S
O519        C532   1.288       .  A
O520       Zr526   2.374       .  S
O520        C529   1.282       .  A
O521       Zr526   2.415       .  S
O521        C530   1.284       .  A
Zr522       O528   2.376       .  S
Zr522       O540   2.350       .  S
Zr523       O527   2.287       .  S
Zr523       O538   2.341       .  S
Zr524       O528   2.285       .  S
Zr524       O538   2.361       .  S
Zr525       O527   2.372       .  S
Zr525       O540   2.345       .  S
Zr526       O527   2.362       .  S
Zr526       O528   2.368       .  S
Zr526       O540   2.344       .  S
Zr526       O538   2.348       .  S
C529       C1017   1.435       .  S
C530        C989   1.461       .  S
C531       C1008   1.463       .  S
C532       C1001   1.462       .  S
C533       C1409   1.454       .  S
C534       C1211   1.449       .  S
C535       C1201   1.459       .  S
C536        C980   1.466       .  S
H537        O538   0.966       .  S
H539        O540   0.963       .  S
C541        C542   1.397       .  A
C541        C546   1.387       .  A
C541        C970   1.451       .  S
C542        C543   1.403       .  A
C542        H547   1.080       .  S
C543        C544   1.403       .  A
C543       C1062   1.427       .  S
C544        C545   1.401       .  A
C544        H548   1.083       .  S
C545        C546   1.387       .  A
C545        C983   1.462       .  S
C546        H549   1.086       .  S
C550        C551   1.420       .  A
C550        C555   1.403       .  A
C550        C967   1.466       .  S
C551        C552   1.420       .  A
C551        H556   1.083       .  S
C552        C553   1.403       .  A
C552        C990   1.466       .  S
C553        C554   1.403       .  A
C553        H557   1.085       .  S
C554        C555   1.402       .  A
C554        C966   1.446       .  S
C555        H558   1.085       .  S
C559        C560   1.400       .  A
C559        C564   1.408       .  A
C559        C956   1.494       .  S
C560        C561   1.393       .  A
C560        H565   1.082       .  S
C561        C562   1.394       .  A
C561       C1037   1.469       .  S
C562        C563   1.398       .  A
C562        H566   1.085       .  S
C563        C564   1.404       .  A
C563        C953   1.423       .  S
C564        H567   1.082       .  S
C568        C569   1.406       .  A
C568        C573   1.418       .  A
C568       C1044   1.468       .  S
C569        C570   1.405       .  A
C569        H574   1.084       .  S
C570        C571   1.403       .  A
C570        C992   1.449       .  S
C571        C572   1.403       .  A
C571        H575   1.085       .  S
C572        C573   1.418       .  A
C572        C951   1.465       .  S
C573        H576   1.084       .  S
C577        C578   1.399       .  A
C577        C582   1.387       .  A
C577        C932   1.445       .  S
C578        C579   1.394       .  A
C578        H583   1.085       .  S
C579        C580   1.399       .  A
C579       C1012   1.428       .  S
C580        C581   1.406       .  A
C580        H584   1.084       .  S
C581        C582   1.392       .  A
C581        C942   1.464       .  S
C582        H585   1.085       .  S
C586        C587   1.404       .  A
C586        C591   1.420       .  A
C586        C929   1.468       .  S
C587        C588   1.403       .  A
C587        H592   1.085       .  S
C588        C589   1.404       .  A
C588       C1046   1.449   1_655  S
C589        C590   1.405       .  A
C589        H593   1.085       .  S
C590        C591   1.420       .  A
C590        C927   1.469       .  S
C591        H594   1.083       .  S
O595       Zr631   2.446       .  S
O595        C606   1.296       .  A
O596       Zr630   2.493       .  S
O596        C607   1.299       .  A
O597       Zr603   2.495       .  S
O597        C608   1.301       .  A
O598       Zr603   2.451       .  S
O598        C609   1.297       .  A
O599       Zr633   2.409       .  S
O599        C609   1.288       .  A
O600       Zr632   2.436       .  S
O600        C608   1.288       .  A
O601       Zr603   2.429       .  S
O601        C607   1.287       .  A
O602       Zr603   2.399       .  S
O602        C606   1.286       .  A
Zr603       O604   2.380       .  S
Zr603       O605   2.373       .  S
Zr603       O613   2.334       .  S
Zr603       O611   2.341       .  S
O604       Zr630   2.294       .  S
O604       Zr633   2.374       .  S
O605       Zr631   2.380       .  S
O605       Zr632   2.305       .  S
C606       C1371   1.468       .  S
C607       C1232   1.461       .  S
C608        C930   1.464       .  S
C609       C1247   1.458       .  S
H610        O611   0.966       .  S
O611       Zr630   2.346       .  S
O611       Zr632   2.364       .  S
H612        O613   0.960       .  S
O613       Zr631   2.330       .  S
O613       Zr633   2.347       .  S
O614       Zr630   2.425       .  S
O614        C637   1.285       .  A
O615       Zr631   2.490       .  S
O615        C638   1.299       .  A
O616       Zr632   2.446       .  S
O616        C639   1.290       .  A
O617       Zr633   2.498       .  S
O617        C640   1.301       .  A
O618       Zr633   2.431       .  S
O618        C641   1.294       .  A
O619       Zr632   2.512       .  S
O619        C642   1.305       .  A
O620       Zr634   2.406       .  S
O620        C643   1.282       .  A
O621       Zr634   2.475       .  S
O621        C644   1.296       .  A
O622       Zr632   2.414       .  S
O622        C643   1.282       .  A
O623       Zr633   2.431       .  S
O623        C644   1.288       .  A
O624       Zr630   2.358       .  S
O624        C639   1.274       .  A
O625       Zr631   2.419       .  S
O625        C642   1.286       .  A
O626       Zr631   2.429       .  S
O626        C641   1.292       .  A
O627       Zr630   2.424       .  S
O627        C640   1.285       .  A
O628       Zr634   2.399       .  S
O628        C637   1.280       .  A
O629       Zr634   2.428       .  S
O629        C638   1.286       .  A
Zr630       O636   2.359       .  S
Zr630       O648   2.350       .  S
Zr631       O635   2.375       .  S
Zr631       O646   2.362       .  S
Zr632       O636   2.363       .  S
Zr632       O646   2.351       .  S
Zr633       O635   2.382       .  S
Zr633       O648   2.351       .  S
Zr634       O635   2.301       .  S
Zr634       O636   2.360       .  S
Zr634       O648   2.343       .  S
Zr634       O646   2.355       .  S
C637        C973   1.469       .  S
C638        C952   1.459       .  S
C639        C945   1.461       .  S
C640        C968   1.461       .  S
C641       C1323   1.469       .  S
C642       C1356   1.465       .  S
C643        C959   1.458       .  S
C644       C1308   1.453       .  S
H645        O646   0.966       .  S
H647        O648   0.966       .  S
C649        C650   1.407       .  A
C649        C654   1.397       .  A
C649        C908   1.482       .  S
C650        C651   1.409       .  A
C650        H655   1.083       .  S
C651        C652   1.402       .  A
C651        C996   1.428       .  S
C652        C653   1.392       .  A
C652        H656   1.084       .  S
C653        C654   1.388       .  A
C653        C918   1.457       .  S
C654        H657   1.084       .  S
C658        C659   1.415       .  A
C658        C663   1.404       .  A
C658        C905   1.461       .  S
C659        C660   1.415       .  A
C659        H664   1.084       .  S
C660        C661   1.401       .  A
C660        C903   1.457       .  S
C661        C662   1.400       .  A
C661        H665   1.085       .  S
C662        C663   1.404       .  A
C662        C902   1.444       .  S
C663        H666   1.085       .  S
O667       Zr703   2.436       .  S
O667        C678   1.295       .  A
O668       Zr702   2.487       .  S
O668        C679   1.299       .  A
O669       Zr675   2.493       .  S
O669        C680   1.300       .  A
O670       Zr675   2.453       .  S
O670        C681   1.297       .  A
O671       Zr705   2.395       .  S
O671        C681   1.286       .  A
O672       Zr704   2.435       .  S
O672        C680   1.287       .  A
O673       Zr675   2.420       .  S
O673        C679   1.286       .  A
O674       Zr675   2.428       .  S
O674        C678   1.292       .  A
Zr675       O676   2.386       .  S
Zr675       O677   2.374       .  S
Zr675       O685   2.328       .  S
Zr675       O683   2.367       .  S
O676       Zr702   2.298       .  S
O676       Zr705   2.371       .  S
O677       Zr703   2.381       .  S
O677       Zr704   2.308       .  S
C678       C1445   1.472       .  S
C679       C1179   1.454       .  S
C680       C1009   1.464       .  S
C681       C1192   1.458       .  S
H682        O683   0.966       .  S
O683       Zr702   2.352       .  S
O683       Zr704   2.357       .  S
H684        O685   0.959       .  S
O685       Zr703   2.337       .  S
O685       Zr705   2.332       .  S
O686       Zr702   2.431       .  S
O686        C709   1.287       .  A
O687       Zr703   2.486       .  S
O687        C710   1.299       .  A
O688       Zr704   2.426       .  S
O688        C711   1.285       .  A
O689       Zr705   2.504       .  S
O689        C712   1.302       .  A
O690       Zr705   2.440       .  S
O690        C713   1.295       .  A
O691       Zr704   2.474       .  S
O691        C714   1.296       .  A
O692       Zr706   2.429       .  S
O692        C715   1.285       .  A
O693       Zr706   2.491       .  S
O693        C716   1.299       .  A
O694       Zr704   2.398       .  S
O694        C715   1.279       .  A
O695       Zr705   2.426       .  S
O695        C716   1.287       .  A
O696       Zr702   2.376       .  S
O696        C711   1.276       .  A
O697       Zr703   2.429       .  S
O697        C714   1.288       .  A
O698       Zr703   2.425       .  S
O698        C713   1.291       .  A
O699       Zr702   2.423       .  S
O699        C712   1.284       .  A
O700       Zr706   2.383       .  S
O700        C709   1.279       .  A
O701       Zr706   2.428       .  S
O701        C710   1.287       .  A
Zr702       O708   2.357       .  S
Zr702       O720   2.352       .  S
Zr703       O707   2.372       .  S
Zr703       O718   2.363       .  S
Zr704       O708   2.358       .  S
Zr704       O718   2.346       .  S
Zr705       O707   2.381       .  S
Zr705       O720   2.321       .  S
Zr706       O707   2.306       .  S
Zr706       O708   2.350       .  S
Zr706       O720   2.344       .  S
Zr706       O718   2.351       .  S
C709        C890   1.446       .  S
C710        C906   1.456       .  S
C711       C1027   1.463       .  S
C712        C900   1.464       .  S
C713       C1417   1.463       .  S
C714       C1435   1.451       .  S
C715        C921   1.463       .  S
C716       C1408   1.457       .  S
H717        O718   0.966       .  S
H719        O720   0.966       .  S
C721        C722   1.390       .  A
C721        C726   1.397       .  A
C721       C1077   1.454       .  S
C722        C723   1.390       .  A
C722        H727   1.086       .  S
C723        C724   1.399       .  A
C723        C880   1.459       .  S
C724        C725   1.400       .  A
C724        H728   1.084       .  S
C725        C726   1.400       .  A
C725        C954   1.423       .  S
C726        H729   1.084       .  S
C730        C731   1.406       .  A
C730        C735   1.421       .  A
C730       C1084   1.470       .  S
C731        C732   1.404       .  A
C731        H736   1.084       .  S
C732        C733   1.399       .  A
C732        C901   1.444       .  S
C733        C734   1.399       .  A
C733        H737   1.085       .  S
C734        C735   1.421       .  A
C734        C878   1.464       .  S
C735        H738   1.083       .  S
C739        C740   1.397       .  A
C739        C744   1.391       .  A
C739        C871   1.470       .  S
C740        C741   1.396       .  A
C740        H745   1.085       .  S
C741        C742   1.396       .  A
C741       C1103   1.420       .  S
C742        C743   1.402       .  A
C742        H746   1.085       .  S
C743        C744   1.396       .  A
C743        C893   1.472       .  S
C744        H747   1.083       .  S
C748        C749   1.403       .  A
C748        C753   1.423       .  A
C748        C899   1.470       .  S
C749        C750   1.402       .  A
C749        H754   1.085       .  S
C750        C751   1.402       .  A
C750        C965   1.445   1_545  S
C751        C752   1.403       .  A
C751        H755   1.085       .  S
C752        C753   1.423       .  A
C752        C865   1.470       .  S
C753        H756   1.083       .  S
O757       Zr793   2.412       .  S
O757        C768   1.284       .  A
O758       Zr792   2.487       .  S
O758        C769   1.299       .  A
O759       Zr765   2.438       .  S
O759        C770   1.288       .  A
O760       Zr765   2.506       .  S
O760        C771   1.303       .  A
O761       Zr795   2.421       .  S
O761        C771   1.286       .  A
O762       Zr794   2.401       .  S
O762        C770   1.280       .  A
O763       Zr765   2.439       .  S
O763        C769   1.289       .  A
O764       Zr765   2.419       .  S
O764        C768   1.284       .  A
Zr765       O766   2.309       .  S
Zr765       O767   2.365       .  S
Zr765       O775   2.347       .  S
Zr765       O773   2.364       .  S
O766       Zr792   2.374       .  S
O766       Zr795   2.371       .  S
O767       Zr793   2.370       .  S
O767       Zr794   2.367       .  S
C768       C1455   1.468       .  S
C769       C1258   1.460       .  S
C770       C1272   1.469       .  S
C771        C928   1.464       .  S
H772        O773   0.966       .  S
O773       Zr792   2.357       .  S
O773       Zr794   2.338       .  S
H774        O775   0.966       .  S
O775       Zr793   2.366       .  S
O775       Zr795   2.355       .  S
O776       Zr792   2.467       .  S
O776        C799   1.299       .  A
O777       Zr793   2.513       .  S
O777        C800   1.304       .  A
O778       Zr794   2.515       .  S
O778        C801   1.304       .  A
O779       Zr795   2.440       .  S
O779        C802   1.293       .  A
O780       Zr795   2.463       .  S
O780        C803   1.294       .  A
O781       Zr794   2.418       .  S
O781        C804   1.285       .  A
O782       Zr796   2.475       .  S
O782        C805   1.297       .  A
O783       Zr796   2.450       .  S
O783        C806   1.295       .  A
O784       Zr794   2.429       .  S
O784        C805   1.287       .  A
O785       Zr795   2.389       .  S
O785        C806   1.282       .  A
O786       Zr792   2.411       .  S
O786        C801   1.284       .  A
O787       Zr793   2.422       .  S
O787        C804   1.284       .  A
O788       Zr793   2.442       .  S
O788        C803   1.290       .  A
O789       Zr792   2.379       .  S
O789        C802   1.284       .  A
O790       Zr796   2.363       .  S
O790        C799   1.280       .  A
O791       Zr796   2.397       .  S
O791        C800   1.281       .  A
Zr792       O798   2.361       .  S
Zr792       O810   2.338       .  S
Zr793       O797   2.296       .  S
Zr793       O808   2.341       .  S
Zr794       O798   2.284       .  S
Zr794       O808   2.366       .  S
Zr795       O797   2.369       .  S
Zr795       O810   2.344       .  S
Zr796       O797   2.359       .  S
Zr796       O798   2.367       .  S
Zr796       O810   2.327       .  S
Zr796       O808   2.351       .  S
C799        C868   1.464       .  S
C800        C877   1.457       .  S
C801        C866   1.465       .  S
C802        C935   1.446       .  S
C803       C1438   1.450       .  S
C804       C1313   1.474       .  S
C805       C1305   1.451       .  S
C806        C883   1.443       .  S
H807        O808   0.966       .  S
H809        O810   0.962       .  S
O811       Zr847   2.402       .  S
O811        C822   1.282       .  A
O812       Zr846   2.475       .  S
O812        C823   1.297       .  A
O813       Zr819   2.432       .  S
O813        C824   1.288       .  A
O814       Zr819   2.497       .  S
O814        C825   1.301       .  A
O815       Zr849   2.420       .  S
O815        C825   1.286       .  A
O816       Zr848   2.378       .  S
O816        C824   1.277       .  A
O817       Zr819   2.448       .  S
O817        C823   1.290       .  A
O818       Zr819   2.424       .  S
O818        C822   1.284       .  A
Zr819       O820   2.307       .  S
Zr819       O821   2.363       .  S
Zr819       O829   2.356       .  S
Zr819       O827   2.359       .  S
O820       Zr846   2.377       .  S
O820       Zr849   2.384       .  S
O821       Zr847   2.363       .  S
O821       Zr848   2.354       .  S
C822       C1337   1.473       .  S
C823       C1178   1.459       .  S
C824       C1185   1.462       .  S
C825       C1153   1.458       .  S
H826        O827   0.966       .  S
O827       Zr846   2.347       .  S
O827       Zr848   2.346       .  S
H828        O829   0.966       .  S
O829       Zr847   2.357       .  S
O829       Zr849   2.358       .  S
O830       Zr846   2.428       .  S
O830        C853   1.292       .  A
O831       Zr847   2.483       .  S
O831        C854   1.298       .  A
O832       Zr848   2.476       .  S
O832        C855   1.296       .  A
O833       Zr849   2.419       .  S
O833        C856   1.292       .  A
O834       Zr849   2.477       .  S
O834        C857   1.297       .  A
O835       Zr848   2.436       .  S
O835        C858   1.286       .  A
O836       Zr850   2.489       .  S
O836        C859   1.300       .  A
O837       Zr850   2.420       .  S
O837        C860   1.292       .  A
O838       Zr848   2.424       .  S
O838        C859   1.286       .  A
O839       Zr849   2.441       .  S
O839        C860   1.293       .  A
O840       Zr846   2.447       .  S
O840        C855   1.291       .  A
O841       Zr847   2.399       .  S
O841        C858   1.279       .  A
O842       Zr847   2.437       .  S
O842        C857   1.288       .  A
O843       Zr846   2.424       .  S
O843        C856   1.291       .  A
O844       Zr850   2.423       .  S
O844        C853   1.292       .  A
O845       Zr850   2.421       .  S
O845        C854   1.286       .  A
Zr846       O852   2.381       .  S
Zr846       O864   2.331       .  S
Zr847       O851   2.293       .  S
Zr847       O862   2.340       .  S
Zr848       O852   2.308       .  S
Zr848       O862   2.351       .  S
Zr849       O851   2.370       .  S
Zr849       O864   2.322       .  S
Zr850       O851   2.380       .  S
Zr850       O852   2.370       .  S
Zr850       O864   2.330       .  S
Zr850       O862   2.352       .  S
C853       C1119   1.465       .  S
C854        C904   1.453       .  S
C855       C1102   1.461       .  S
C856       C1168   1.468       .  S
C857       C1329   1.457       .  S
C858       C1289   1.459       .  S
C859       C1281   1.455       .  S
C860        C911   1.471       .  S
H861        O862   0.966       .  S
H863        O864   0.959       .  S
C865        C866   1.225       .  T
C867        C868   1.412       .  A
C867        C872   1.383       .  A
C867        H873   1.083       .  S
C868        C869   1.396       .  A
C869        C870   1.391       .  A
C869        H874   1.083       .  S
C870        C871   1.413       .  A
C870        H875   1.083       .  S
C871        C872   1.393       .  A
C872        H876   1.083       .  S
C877        C878   1.221       .  T
C879        C880   1.400       .  A
C879        C884   1.385       .  A
C879        H885   1.084       .  S
C880        C881   1.407       .  A
C881        C882   1.394       .  A
C881        H886   1.083       .  S
C882        C883   1.399       .  A
C882        H887   1.083       .  S
C883        C884   1.398       .  A
C884        H888   1.084       .  S
C889        C890   1.397       .  A
C889        C894   1.388       .  A
C889        H895   1.082       .  S
C890        C891   1.401       .  A
C891        C892   1.388       .  A
C891        H896   1.084       .  S
C892        C893   1.403       .  A
C892        H897   1.083       .  S
C893        C894   1.410       .  A
C894        H898   1.082       .  S
C899        C900   1.224       .  T
C901        C902   1.209   1_556  T
C903        C904   1.217       .  T
C905        C906   1.219       .  T
C907        C908   1.407       .  A
C907        C912   1.403       .  A
C907        H913   1.083       .  S
C908        C909   1.406       .  A
C909        C910   1.381       .  A
C909        H914   1.082       .  S
C910        C911   1.400       .  A
C910        H915   1.084       .  S
C911        C912   1.408       .  A
C912        H916   1.082       .  S
C917        C918   1.403       .  A
C917        C922   1.394       .  A
C917        H923   1.084       .  S
C918        C919   1.398       .  A
C919        C920   1.391       .  A
C919        H924   1.084       .  S
C920        C921   1.403       .  A
C920        H925   1.081       .  S
C921        C922   1.402       .  A
C922        H926   1.083       .  S
C927        C928   1.224       .  T
C929        C930   1.223       .  T
C931        C932   1.407       .  A
C931        C936   1.381       .  A
C931        H937   1.082       .  S
C932        C933   1.390       .  A
C933        C934   1.387       .  A
C933        H938   1.083       .  S
C934        C935   1.410       .  A
C934        H939   1.084       .  S
C935        C936   1.391       .  A
C936        H940   1.084       .  S
C941        C942   1.395       .  A
C941        C946   1.386       .  A
C941        H947   1.083       .  S
C942        C943   1.410       .  A
C943        C944   1.382       .  A
C943        H948   1.080       .  S
C944        C945   1.394       .  A
C944        H949   1.083       .  S
C945        C946   1.412       .  A
C946        H950   1.083       .  S
C951        C952   1.221       .  T
C953        C954   1.195       .  T
C955        C956   1.415       .  A
C955        C960   1.384       .  A
C955        H961   1.076       .  S
C956        C957   1.407       .  A
C957        C958   1.396       .  A
C957        H962   1.081       .  S
C958        C959   1.401       .  A
C958        H963   1.078       .  S
C959        C960   1.392       .  A
C960        H964   1.084       .  S
C965        C966   1.209       .  T
C967        C968   1.222       .  T
C969        C970   1.398       .  A
C969        C974   1.386       .  A
C969        H975   1.084       .  S
C970        C971   1.401       .  A
C971        C972   1.395       .  A
C971        H976   1.083       .  S
C972        C973   1.406       .  A
C972        H977   1.083       .  S
C973        C974   1.402       .  A
C974        H978   1.077       .  S
C979        C980   1.409       .  A
C979        C984   1.395       .  A
C979        H985   1.083       .  S
C980        C981   1.400       .  A
C981        C982   1.382       .  A
C981        H986   1.083       .  S
C982        C983   1.404       .  A
C982        H987   1.084       .  S
C983        C984   1.398       .  A
C984        H988   1.083       .  S
C989        C990   1.222       .  T
C991        C992   1.212   1_554  T
C993        C994   1.219       .  T
C995        C996   1.198       .  T
C997        C998   1.405       .  A
C997       C1002   1.397       .  A
C997       H1003   1.083       .  S
C998        C999   1.397       .  A
C999       C1000   1.389       .  A
C999       H1004   1.082       .  S
C1000      C1001   1.401       .  A
C1000      H1005   1.079       .  S
C1001      C1002   1.402       .  A
C1002      H1006   1.083       .  S
C1007      C1008   1.223       .  T
C1009      C1010   1.223       .  T
C1011      C1012   1.195       .  T
C1013      C1014   1.401       .  A
C1013      C1018   1.385       .  A
C1013      H1019   1.084       .  S
C1014      C1015   1.400       .  A
C1015      C1016   1.389       .  A
C1015      H1020   1.084       .  S
C1016      C1017   1.401       .  A
C1016      H1021   1.084       .  S
C1017      C1018   1.395       .  A
C1018      H1022   1.084       .  S
C1023      C1024   1.409       .  A
C1023      C1028   1.385       .  A
C1023      H1029   1.083       .  S
C1024      C1025   1.398       .  A
C1025      C1026   1.390       .  A
C1025      H1030   1.083       .  S
C1026      C1027   1.409       .  A
C1026      H1031   1.083       .  S
C1027      C1028   1.397       .  A
C1028      H1032   1.083       .  S
C1033      C1034   1.390       .  A
C1033      C1038   1.389       .  A
C1033      H1039   1.083       .  S
C1034      C1035   1.405       .  A
C1035      C1036   1.393       .  A
C1035      H1040   1.079       .  S
C1036      C1037   1.394       .  A
C1036      H1041   1.082       .  S
C1037      C1038   1.411       .  A
C1038      H1042   1.080       .  S
C1043      C1044   1.223       .  T
C1045      C1046   1.211       .  T
C1047      C1048   1.221       .  T
C1049      C1050   1.398       .  A
C1049      C1054   1.381       .  A
C1049      H1055   1.084       .  S
C1050      C1051   1.399       .  A
C1051      C1052   1.399       .  A
C1051      H1056   1.083       .  S
C1052      C1053   1.410       .  A
C1052      H1057   1.083       .  S
C1053      C1054   1.404       .  A
C1054      H1058   1.083       .  S
C1059      C1060   1.223       .  T
C1061      C1062   1.196       .  T
C1063      C1064   1.401       .  A
C1063      C1068   1.398       .  A
C1063      H1069   1.083       .  S
C1064      C1065   1.398       .  A
C1065      C1066   1.384       .  A
C1065      H1070   1.084       .  S
C1066      C1067   1.403       .  A
C1066      H1071   1.081       .  S
C1067      C1068   1.407       .  A
C1068      H1072   1.083       .  S
C1073      C1074   1.400       .  A
C1073      C1078   1.382       .  A
C1073      H1079   1.083       .  S
C1074      C1075   1.410       .  A
C1075      C1076   1.394       .  A
C1075      H1080   1.083       .  S
C1076      C1077   1.396       .  A
C1076      H1081   1.083       .  S
C1077      C1078   1.401       .  A
C1078      H1082   1.084       .  S
C1083      C1084   1.224       .  T
C1085      C1086   1.402       .  A
C1085      C1090   1.393       .  A
C1085      H1091   1.083       .  S
C1086      C1087   1.398       .  A
C1087      C1088   1.388       .  A
C1087      H1092   1.076       .  S
C1088      C1089   1.398       .  A
C1088      H1093   1.084       .  S
C1089      C1090   1.404       .  A
C1090      H1094   1.083       .  S
C1095      C1096   1.220       .  T
C1097      C1098   1.214       .  T
C1099      C1100   1.218       .  T
C1101      C1102   1.221       .  T
C1103      C1104   1.195       .  T
C1105      C1106   1.402       .  A
C1105      C1110   1.390       .  A
C1105      H1111   1.084       .  S
C1106      C1107   1.406       .  A
C1107      C1108   1.390       .  A
C1107      H1112   1.080       .  S
C1108      C1109   1.402       .  A
C1108      H1113   1.083       .  S
C1109      C1110   1.405       .  A
C1110      H1114   1.080       .  S
C1115      C1116   1.403       .  A
C1115      C1120   1.392       .  A
C1115      H1121   1.084       .  S
C1116      C1117   1.407       .  A
C1117      C1118   1.387       .  A
C1117      H1122   1.080       .  S
C1118      C1119   1.400       .  A
C1118      H1123   1.083       .  S
C1119      C1120   1.406       .  A
C1120      H1124   1.082       .  S
C1125      C1126   1.397       .  A
C1125      C1130   1.380       .  A
C1125      H1131   1.071       .  S
C1126      C1127   1.403       .  A
C1127      C1128   1.397       .  A
C1127      H1132   1.083       .  S
C1128      C1129   1.404       .  A
C1128      H1133   1.083       .  S
C1129      C1130   1.393       .  A
C1130      H1134   1.083       .  S
C1135      C1136   1.217       .  T
C1137      C1138   1.400       .  A
C1137      C1142   1.380       .  A
C1137      H1143   1.082       .  S
C1138      C1139   1.410       .  A
C1139      C1140   1.398       .  A
C1139      H1144   1.083       .  S
C1140      C1141   1.398       .  A
C1140      H1145   1.083       .  S
C1141      C1142   1.399       .  A
C1142      H1146   1.084       .  S
C1147      C1148   1.221       .  T
C1149      C1150   1.213       .  T
C1151      C1152   1.223       .  T
C1153      C1154   1.220       .  T
C1155      C1156   1.197       .  T
C1157      C1158   1.401       .  A
C1157      C1162   1.399       .  A
C1157      H1163   1.083       .  S
C1158      C1159   1.398       .  A
C1159      C1160   1.384       .  A
C1159      H1164   1.084       .  S
C1160      C1161   1.402       .  A
C1160      H1165   1.081       .  S
C1161      C1162   1.407       .  A
C1162      H1166   1.082       .  S
C1167      C1168   1.401       .  A
C1167      C1172   1.379       .  A
C1167      H1173   1.083       .  S
C1168      C1169   1.409       .  A
C1169      C1170   1.400       .  A
C1169      H1174   1.082       .  S
C1170      C1171   1.402       .  A
C1170      H1175   1.083       .  S
C1171      C1172   1.404       .  A
C1172      H1176   1.084       .  S
C1177      C1178   1.221       .  T
C1179      C1180   1.218       .  T
C1181      C1182   1.402       .  A
C1181      C1186   1.381       .  A
C1181      H1187   1.084       .  S
C1182      C1183   1.393       .  A
C1183      C1184   1.392       .  A
C1183      H1188   1.083       .  S
C1184      C1185   1.413       .  A
C1184      H1189   1.083       .  S
C1185      C1186   1.398       .  A
C1186      H1190   1.083       .  S
C1191      C1192   1.406       .  A
C1191      C1196   1.393       .  A
C1191      H1197   1.083       .  S
C1192      C1193   1.400       .  A
C1193      C1194   1.388       .  A
C1193      H1198   1.081       .  S
C1194      C1195   1.401       .  A
C1194      H1199   1.084       .  S
C1195      C1196   1.401       .  A
C1196      H1200   1.083       .  S
C1201      C1202   1.220       .  T
C1203      C1204   1.222       .  T
C1205      C1206   1.195       .  T
C1207      C1208   1.390       .  A
C1207      C1212   1.391       .  A
C1207      H1213   1.082       .  S
C1208      C1209   1.412       .  A
C1209      C1210   1.390       .  A
C1209      H1214   1.084   1_655  S
C1210      C1211   1.391       .  A
C1210      H1215   1.083       .  S
C1211      C1212   1.400       .  A
C1212      H1216   1.075       .  S
C1217      C1218   1.405       .  A
C1217      C1222   1.403       .  A
C1217      H1223   1.083       .  S
C1218      C1219   1.406       .  A
C1219      C1220   1.377       .  A
C1219      H1224   1.083       .  S
C1220      C1221   1.400       .  A
C1220      H1225   1.082       .  S
C1221      C1222   1.411       .  A
C1222      H1226   1.082       .  S
C1227      C1228   1.212       .  T
C1229      C1230   1.220       .  T
C1231      C1232   1.222       .  T
C1233      C1234   1.400       .  A
C1233      C1238   1.382       .  A
C1233      H1239   1.084       .  S
C1234      C1235   1.399       .  A
C1235      C1236   1.398       .  A
C1235      H1240   1.083       .  S
C1236      C1237   1.408       .  A
C1236      H1241   1.082       .  S
C1237      C1238   1.404       .  A
C1238      H1242   1.083       .  S
C1243      C1244   1.406       .  A
C1243      C1248   1.395       .  A
C1243      H1249   1.083       .  S
C1244      C1245   1.396       .  A
C1245      C1246   1.387       .  A
C1245      H1250   1.082       .  S
C1246      C1247   1.401       .  A
C1246      H1251   1.079       .  S
C1247      C1248   1.401       .  A
C1248      H1252   1.083       .  S
C1253      C1254   1.212       .  T
C1255      C1256   1.219       .  T
C1257      C1258   1.221       .  T
C1259      C1260   1.198       .  T
C1261      C1262   1.399       .  A
C1261      C1266   1.396       .  A
C1261      H1267   1.083       .  S
C1262      C1263   1.404       .  A
C1263      C1264   1.380       .  A
C1263      H1268   1.084       .  S
C1264      C1265   1.399       .  A
C1264      H1269   1.083       .  S
C1265      C1266   1.409       .  A
C1266      H1270   1.082       .  S
C1271      C1272   1.398       .  A
C1271      C1276   1.386       .  A
C1271      H1277   1.072       .  S
C1272      C1273   1.406       .  A
C1273      C1274   1.398       .  A
C1273      H1278   1.083       .  S
C1274      C1275   1.405       .  A
C1274      H1279   1.083       .  S
C1275      C1276   1.397       .  A
C1276      H1280   1.084       .  S
C1281      C1282   1.219       .  T
C1283      C1284   1.221       .  T
C1285      C1286   1.405       .  A
C1285      C1290   1.393       .  A
C1285      H1291   1.083       .  S
C1286      C1287   1.396       .  A
C1287      C1288   1.389       .  A
C1287      H1292   1.084       .  S
C1288      C1289   1.401       .  A
C1288      H1293   1.075       .  S
C1289      C1290   1.400       .  A
C1290      H1294   1.083       .  S
C1295      C1296   1.408       .  A
C1295      C1300   1.395       .  A
C1295      H1301   1.083       .  S
C1296      C1297   1.394       .  A
C1297      C1298   1.385       .  A
C1297      H1302   1.082       .  S
C1298      C1299   1.399       .  A
C1298      H1303   1.081       .  S
C1299      C1300   1.396       .  A
C1300      H1304   1.083       .  S
C1305      C1306   1.216       .  T
C1307      C1308   1.217       .  T
C1309      C1310   1.401       .  A
C1309      C1314   1.401       .  A
C1309      H1315   1.083       .  S
C1310      C1311   1.397       .  A
C1311      C1312   1.383       .  A
C1311      H1316   1.084       .  S
C1312      C1313   1.402       .  A
C1312      H1317   1.080       .  S
C1313      C1314   1.408       .  A
C1314      H1318   1.083       .  S
C1319      C1320   1.396       .  A
C1319      C1324   1.382       .  A
C1319      H1325   1.084       .  S
C1320      C1321   1.401       .  A
C1321      C1322   1.400       .  A
C1321      H1326   1.083       .  S
C1322      C1323   1.408       .  A
C1322      H1327   1.083       .  S
C1323      C1324   1.404       .  A
C1324      H1328   1.082       .  S
C1329      C1330   1.219       .  T
C1331      C1332   1.220       .  T
C1333      C1334   1.399       .  A
C1333      C1338   1.381       .  A
C1333      H1339   1.084       .  S
C1334      C1335   1.403       .  A
C1335      C1336   1.401       .  A
C1335      H1340   1.083       .  S
C1336      C1337   1.408       .  A
C1336      H1341   1.083       .  S
C1337      C1338   1.405       .  A
C1338      H1342   1.083       .  S
C1343      C1344   1.408       .  A
C1343      C1348   1.396       .  A
C1343      H1349   1.083       .  S
C1344      C1345   1.396       .  A
C1345      C1346   1.391       .  A
C1345      H1350   1.082       .  S
C1346      C1347   1.403       .  A
C1346      H1351   1.081       .  S
C1347      C1348   1.397       .  A
C1348      H1352   1.083       .  S
C1353      C1354   1.224       .  T
C1355      C1356   1.224       .  T
C1357      C1358   1.395       .  A
C1357      C1362   1.392       .  A
C1357      H1363   1.083       .  S
C1358      C1359   1.400       .  A
C1359      C1360   1.383       .  A
C1359      H1364   1.084       .  S
C1360      C1361   1.400       .  A
C1360      H1365   1.081       .  S
C1361      C1362   1.411       .  A
C1362      H1366   1.083       .  S
C1367      C1368   1.395       .  A
C1367      C1372   1.396       .  A
C1367      H1373   1.083   1_655  S
C1368      C1369   1.404       .  A
C1369      C1370   1.382       .  A
C1369      H1374   1.084       .  S
C1370      C1371   1.399       .  A
C1370      H1375   1.083       .  S
C1371      C1372   1.413       .  A
C1372      H1376   1.083       .  S
C1377      C1378   1.210       .  T
C1379      C1380   1.221       .  T
C1381      C1382   1.221       .  T
C1383      C1384   1.197   1_556  T
C1385      C1386   1.411       .  A
C1385      C1390   1.399       .  A
C1385      H1391   1.083       .  S
C1386      C1387   1.402       .  A
C1387      C1388   1.380       .  A
C1387      H1392   1.083       .  S
C1388      C1389   1.401       .  A
C1388      H1393   1.084       .  S
C1389      C1390   1.398       .  A
C1390      H1394   1.083       .  S
C1395      C1396   1.400       .  A
C1395      C1400   1.399       .  A
C1395      H1401   1.083       .  S
C1396      C1397   1.400       .  A
C1397      C1398   1.383       .  A
C1397      H1402   1.084       .  S
C1398      C1399   1.400       .  A
C1398      H1403   1.080       .  S
C1399      C1400   1.411       .  A
C1400      H1404   1.083       .  S
C1405      C1406   1.211       .  T
C1407      C1408   1.219       .  T
C1409      C1410   1.218       .  T
C1411      C1412   1.197   1_554  T
C1413      C1414   1.405       .  A
C1413      C1418   1.398       .  A
C1413      H1419   1.083       .  S
C1414      C1415   1.396       .  A
C1415      C1416   1.386       .  A
C1415      H1420   1.083       .  S
C1416      C1417   1.403       .  A
C1416      H1421   1.080       .  S
C1417      C1418   1.403       .  A
C1418      H1422   1.083       .  S
C1423      C1424   1.399       .  A
C1423      C1428   1.380       .  A
C1423      H1429   1.084       .  S
C1424      C1425   1.400       .  A
C1425      C1426   1.401       .  A
C1425      H1430   1.083       .  S
C1426      C1427   1.409       .  A
C1426      H1431   1.082       .  S
C1427      C1428   1.404       .  A
C1428      H1432   1.083       .  S
C1433      C1434   1.212       .  T
C1435      C1436   1.216       .  T
C1437      C1438   1.215       .  T
C1439      C1440   1.196       .  T
C1441      C1442   1.397       .  A
C1441      C1446   1.384       .  A
C1441      H1447   1.084       .  S
C1442      C1443   1.400       .  A
C1443      C1444   1.400       .  A
C1443      H1448   1.083       .  S
C1444      C1445   1.408       .  A
C1444      H1449   1.083       .  S
C1445      C1446   1.404       .  A
C1446      H1450   1.082       .  S
C1451      C1452   1.402       .  A
C1451      C1456   1.400       .  A
C1451      H1457   1.083       .  S
C1452      C1453   1.394       .  A
C1453      C1454   1.381       .  A
C1453      H1458   1.084       .  S
C1454      C1455   1.400       .  A
C1454      H1459   1.077       .  S
C1455      C1456   1.407       .  A
C1456      H1460   1.083       .  S
C1461      C1462   1.214       .  T
C1463      C1464   1.222       .  T
C1465      C1466   1.220       .  T
C1467      C1468   1.196       .  T
C1469      C1470   1.405       .  A
C1469      C1474   1.405       .  A
C1469      H1475   1.083       .  S
C1470      C1471   1.395       .  A
C1471      C1472   1.382       .  A
C1471      H1476   1.084       .  S
C1472      C1473   1.409       .  A
C1472      H1477   1.083       .  S
C1473      C1474   1.405       .  A
C1474      H1478   1.082       .  S
C1479      C1480   1.394       .  A
C1479      C1484   1.387       .  A
C1479      H1485   1.082       .  S
C1480      C1481   1.411       .  A
C1481      C1482   1.392       .  A
C1481      H1486   1.083       .  S
C1482      C1483   1.393       .  A
C1482      H1487   1.083       .  S
C1483      C1484   1.397       .  A
C1484      H1488   1.077       .  S
