geometry optimzed in LAMMPS
_audit_creation_date              2020-11-30 
_audit_creation_method            'lammps2cif' 
_symmetry_space_group_name_H-M    'P1' 
_symmetry_Int_Tables_number       1 
_symmetry_cell_setting            triclinic 
loop_ 
_symmetry_equiv_pos_as_xyz 
  x,y,z 
_cell_length_a                    49.36514526 
_cell_length_b                    49.20695212518058 
_cell_length_c                    58.75266037324314 
_cell_angle_alpha                 89.49309392130245 
_cell_angle_beta                  90.34179321688548 
_cell_angle_gamma                 120.66323794584048 
loop_ 
_atom_site_label 
_atom_site_type_symbol 
_atom_site_fract_x 
_atom_site_fract_y 
_atom_site_fract_z 
_atom_site_charge 
C1          C  0.32321922  0.00632350  0.71785217     0.82500
N2          N  0.35286450  0.02013768  0.70895960    -0.75800
C3          C  0.37668608  0.04719716  0.71839292     0.84900
N4          N  0.37069344  0.05995130  0.73650051    -0.75800
C5          C  0.34153032  0.04624704  0.74541793     0.85000
N6          N  0.31769588  0.01942020  0.73620549    -0.77500
C7          C  0.00377030  0.11119739  0.68272713     0.82500
N8          N  0.47457324  0.09676005  0.69251754    -0.75800
C9          C  0.45105650  0.06862910  0.68410652     0.84900
N10         N  0.45687964  0.05546399  0.66615251    -0.75800
C11         C  0.48557865  0.06974996  0.65641657     0.85000
N12         N  0.00905246  0.09760937  0.66457534    -0.77500
C13         C  0.28308834  0.44769547  0.84966803     0.82500
N14         N  0.29983714  0.43824788  0.86241170    -0.75800
C15         C  0.30161478  0.41270663  0.85620573     0.84900
N16         N  0.28664677  0.39671566  0.83702421    -0.75800
C17         C  0.26997774  0.40613577  0.82417193     0.85000
N18         N  0.26830776  0.43176969  0.83042673    -0.77500
C19         C  0.36837235  0.33964249  0.88081962     0.82500
N20         N  0.34885398  0.34706615  0.86965447    -0.75800
C21         C  0.34613876  0.37183840  0.87653952     0.84900
N22         N  0.36304341  0.38914941  0.89477889    -0.75800
C23         C  0.38251537  0.38171192  0.90601624     0.85000
N24         N  0.38508969  0.35687818  0.89907403    -0.77500
C25         C  0.45258389  0.27849012  0.51262794     0.82500
N26         N  0.47087970  0.27053480  0.52496883    -0.75800
C27         C  0.47369993  0.24550721  0.51889432     0.84900
N28         N  0.45805724  0.22840275  0.50018917    -0.75800
C29         C  0.43970728  0.23624487  0.48773615     0.85000
N30         N  0.43710585  0.26140204  0.49392847    -0.77500
C31         C  0.04176033  0.17407897  0.54692837     0.82500
N32         N  0.05682978  0.19089076  0.56578443    -0.75800
C33         C  0.05396644  0.21580257  0.57211161     0.84900
N34         N  0.03571400  0.22372993  0.55960502    -0.75800
C35         C  0.02043067  0.20688650  0.54070261     0.85000
N36         N  0.02350357  0.18202900  0.53451002    -0.77500
C37         C  0.34303033  0.28095917  0.01568535     0.82500
N38         N  0.34163635  0.26420700  0.99710487    -0.75800
C39         C  0.31375957  0.23924381  0.99041822     0.84900
N40         N  0.28708867  0.23118706  0.00225608    -0.75800
C41         C  0.28840462  0.24809229  0.02091891     0.85000
N42         N  0.31646393  0.27303576  0.02748783    -0.77500
C43         C  0.14813589  0.17357525  0.04698345     0.82500
N44         N  0.14910626  0.18992533  0.06580942    -0.75800
C45         C  0.17675304  0.21551114  0.07249103     0.84900
N46         N  0.20346167  0.22446395  0.06039557    -0.75800
C47         C  0.20252901  0.20799116  0.04158462     0.85000
N48         N  0.17481991  0.18260597  0.03503166    -0.77500
C49         C  0.48059152  0.33765430  0.38118821     0.82500
N50         N  0.00752653  0.34472437  0.37045060    -0.75800
C51         C  0.03550339  0.36882024  0.37767499     0.84900
N52         N  0.03648796  0.38607981  0.39609404    -0.75800
C53         C  0.50934298  0.37901895  0.40702537     0.85000
N54         N  0.48140326  0.35454164  0.39961476    -0.77500
C55         C  0.14609048  0.39948610  0.32505233     0.82500
N56         N  0.11959930  0.39015276  0.33763724    -0.75800
C57         C  0.12079171  0.40701230  0.35636245     0.84900
N58         N  0.14828110  0.43298778  0.36220474    -0.75800
C59         C  0.17454461  0.44231442  0.34979375     0.85000
N60         N  0.17350969  0.42576321  0.33111195    -0.77500
C61         C  0.11912414  0.11473182  0.17862947     0.82500
N62         N  0.13613485  0.10588148  0.19170137    -0.75800
C63         C  0.13801689  0.08016894  0.18602282     0.84900
N64         N  0.12291981  0.06350568  0.16706454    -0.75800
C65         C  0.10607823  0.07249704  0.15397621     0.85000
N66         N  0.10425185  0.09811135  0.15973843    -0.77500
C67         C  0.21235938  0.04538832  0.24089177     0.82500
N68         N  0.21352261  0.01928991  0.23520738    -0.75800
C69         C  0.19747268  0.00210048  0.21672287     0.84900
N70         N  0.18012799  0.01091040  0.20405733    -0.75800
C71         C  0.17884977  0.03694404  0.20966925     0.85000
N72         N  0.19502630  0.05414676  0.22815161    -0.77500
C73         C  0.02286673  0.30077144  0.84466701     0.82500
N74         N  0.04037831  0.30149110  0.82665689    -0.75800
C75         C  0.06569205  0.32933564  0.81979990     0.84900
N76         N  0.07327356  0.35644131  0.83090538    -0.75800
C77         C  0.05565265  0.35573969  0.84889452     0.85000
N78         N  0.03051539  0.32785975  0.85564114    -0.77500
C79         C  0.12993723  0.49565683  0.87675706     0.82500
N80         N  0.12125299  0.46971260  0.86387950    -0.75800
C81         C  0.09545225  0.44163331  0.86955102     0.84900
N82         N  0.07856771  0.43964777  0.88838427    -0.75800
C83         C  0.08736741  0.46561706  0.90127216     0.85000
N84         N  0.11196410  0.98903944  0.90079424    -0.77500
C85         C  0.39940449  0.36436439  0.65721084     0.82500
N86         N  0.40726299  0.34574107  0.66921660    -0.75800
C87         C  0.39014472  0.32934866  0.68771917     0.84900
N88         N  0.36510107  0.33170155  0.69414972    -0.75800
C89         C  0.35713857  0.35032446  0.68225316     0.85000
N90         N  0.37417147  0.36656697  0.66365038    -0.77500
C91         C  0.46658479  0.26757908  0.71481969     0.82500
N92         N  0.45022036  0.25164753  0.73370679    -0.75800
C93         C  0.42392229  0.25213243  0.73974210     0.84900
N94         N  0.41432325  0.26883626  0.72702711    -0.75800
C95         C  0.43079874  0.28491342  0.70820169     0.85000
N96         N  0.45690554  0.28422705  0.70220720    -0.77500
C97         C  0.19661662  0.12864683  0.51561165     0.82500
N98         N  0.20439785  0.15516458  0.52734863    -0.75800
C99         C  0.22883861  0.18345327  0.52059189     0.84900
N100        N  0.24558856  0.18511358  0.50166462    -0.75800
C101        C  0.23766857  0.15833659  0.48981536     0.85000
N102        N  0.21304769  0.13022735  0.49677566    -0.77500
C103        C  0.29894105  0.32308850  0.54931700     0.82500
N104        N  0.28149228  0.32085119  0.56784457    -0.75800
C105        C  0.25586370  0.29258090  0.57368136     0.84900
N106        N  0.24807734  0.26651631  0.56101852    -0.75800
C107        C  0.26570214  0.26876725  0.54249201     0.85000
N108        N  0.29101905  0.29708321  0.53683080    -0.77500
C109        C  0.18970131  0.02019803  0.01533962     0.82500
N110        N  0.20677207  0.51046124  0.03108649    -0.75800
C111        C  0.23341624  0.51030021  0.02571608     0.84900
N112        N  0.24151753  0.01722675  0.00451790    -0.75800
C113        C  0.23369677  0.03549133  0.99194007     0.85000
N114        N  0.20772542  0.03684801  0.99730200    -0.77500
C115        C  0.30758182  0.44507137  0.05146096     0.82500
N116        N  0.30031856  0.46489706  0.04048945    -0.75800
C117        C  0.27588231  0.46790889  0.04763713     0.84900
N118        N  0.25865222  0.45089256  0.06596356    -0.75800
C119        C  0.26591738  0.43110164  0.07706153     0.85000
N120        N  0.29042197  0.42821687  0.06980504    -0.77500
C121        C  0.13202231  0.09941191  0.37921374     0.82500
N122        N  0.11598494  0.08404532  0.39826638    -0.75800
C123        C  0.08999860  0.08487446  0.40446692     0.84900
N124        N  0.08018379  0.10139451  0.39165453    -0.75800
C125        C  0.09633769  0.11695163  0.37252723     0.85000
N126        N  0.12229826  0.11594348  0.36646530    -0.77500
C127        C  0.02146028  0.18091730  0.34478436     0.82500
N128        N  0.02942923  0.16233139  0.35674561    -0.75800
C129        C  0.05444902  0.15987603  0.35032110     0.84900
N130        N  0.07147369  0.17613808  0.33167706    -0.75800
C131        C  0.06343070  0.19467142  0.31961469     0.85000
N132        N  0.03835328  0.19696614  0.32615943    -0.77500
C133        C  0.41952207  0.13057663  0.23497761     0.82500
N134        N  0.41062369  0.10379776  0.22297628    -0.75800
C135        C  0.42726477  0.10457246  0.20431111     0.84900
N136        N  0.45291610  0.13229961  0.19783374    -0.75800
C137        C  0.46194295  0.15912071  0.20971536     0.85000
N138        N  0.44534860  0.15820682  0.22839788    -0.77500
C139        C  0.40063548  0.48872415  0.15169543     0.82500
N140        N  0.40410903  0.01792392  0.16690364    -0.75800
C141        C  0.38691370  0.01765239  0.18506132     0.84900
N142        N  0.37245313  0.49601312  0.18874933    -0.75800
C143        C  0.35942274  0.46720066  0.17848914     0.85000
N144        N  0.37356259  0.46371247  0.15981784    -0.77500
C145        C  0.26788545  0.31892935  0.32094864     0.82500
N146        N  0.27197491  0.29557702  0.32944844    -0.75800
C147        C  0.28882223  0.30023604  0.34887743     0.84900
N148        N  0.30184834  0.32885993  0.35967652    -0.75800
C149        C  0.29740684  0.35226193  0.35083819     0.85000
N150        N  0.28049008  0.34685774  0.33160262    -0.77500
C151        C  0.35779782  0.48053796  0.38641492     0.82500
N152        N  0.34176659  0.45065176  0.37753007    -0.75800
C153        C  0.34476640  0.42694027  0.38745778     0.84900
N154        N  0.36343237  0.43335504  0.40584973    -0.75800
C155        C  0.37918642  0.46262657  0.41458494     0.85000
N156        N  0.37943483  0.98725426  0.40374783    -0.77500
C157        C  0.19917646  0.15404254  0.71826932     0.82500
N158        N  0.18127151  0.12730455  0.70630170    -0.75800
C159        C  0.17957335  0.09995090  0.71264467     0.84900
N160        N  0.19600241  0.09944142  0.73118060    -0.75800
C161        C  0.21395889  0.12627325  0.74322842     0.85000
N162        N  0.21542696  0.15356064  0.73681292    -0.77500
C163        C  0.11772698  0.46144374  0.68458586     0.82500
N164        N  0.13468853  0.48811168  0.69686523    -0.75800
C165        C  0.13602947  0.01476778  0.69095703     0.84900
N166        N  0.12166616  0.01622974  0.67151179    -0.75800
C167        C  0.10426219  0.48910888  0.65856809     0.85000
N168        N  0.10273517  0.46198781  0.66537011    -0.77500
C169        C  0.34378275  0.01365891  0.51125398     0.82500
N170        N  0.34300566  0.02985430  0.49260183    -0.75800
C171        C  0.31538975  0.02742861  0.48594638     0.84900
N172        N  0.28866697  0.00872789  0.49791558    -0.75800
C173        C  0.28935200  0.99242332  0.51652058     0.85000
N174        N  0.31696153  0.99497959  0.52307393    -0.77500
C175        C  0.14811067  0.42993176  0.54586532     0.82500
N176        N  0.17480399  0.44723427  0.53353663    -0.75800
C177        C  0.20204052  0.44888185  0.54007119     0.84900
N178        N  0.20247837  0.43324691  0.55910448    -0.75800
C179        C  0.17593009  0.41603160  0.57150015     0.85000
N180        N  0.14871964  0.41446232  0.56495986    -0.77500
C181        C  0.31389482  0.26681281  0.21203102     0.82500
N182        N  0.34026281  0.28381536  0.19930698    -0.75800
C183        C  0.36770155  0.28558915  0.20545877     0.84900
N184        N  0.36860729  0.27024894  0.22462155    -0.75800
C185        C  0.34227486  0.25326685  0.23745319     0.85000
N186        N  0.31497542  0.25168882  0.23116232    -0.77500
C187        C  0.00795886  0.34997099  0.17888690     0.82500
N188        N  0.48097386  0.33165684  0.19066303    -0.75800
C189        C  0.45345949  0.32896021  0.18358309     0.84900
N190        N  0.45319168  0.34494423  0.16459052    -0.75800
C191        C  0.48030186  0.36345885  0.15286419     0.85000
N192        N  0.00756061  0.36576358  0.15994789    -0.77500
C193        C  0.45552612  0.13222454  0.01459635     0.82500
N194        N  0.47559342  0.15922839  0.02572231    -0.75800
C195        C  0.47941071  0.18727850  0.01860413     0.84900
N196        N  0.46301475  0.18815626  0.00018903    -0.75800
C197        C  0.44298979  0.16119899  0.98899770     0.85000
N198        N  0.43934333  0.13321558  0.99615377    -0.77500
C199        C  0.04451567  0.32799288  0.04224954     0.82500
N200        N  0.05983971  0.32807287  0.06152409    -0.75800
C201        C  0.05883233  0.30122850  0.06860089     0.84900
N202        N  0.04204589  0.27415852  0.05651719    -0.75800
C203        C  0.02655126  0.27406394  0.03722766     0.85000
N204        N  0.02781419  0.30101962  0.03025764    -0.77500
C205        C  0.17550074  0.18710982  0.85025343     0.82500
N206        N  0.17501843  0.20361779  0.83174803    -0.75800
C207        C  0.14777073  0.20208883  0.82536751     0.84900
N208        N  0.12100125  0.18380106  0.83736382    -0.75800
C209        C  0.12133849  0.16713661  0.85585094     0.85000
N210        N  0.14864958  0.16881341  0.86217782    -0.77500
C211        C  0.48061760  0.10159954  0.87996729     0.82500
N212        N  0.48058538  0.08509884  0.89855581    -0.75800
C213        C  0.50761371  0.08677747  0.90552858     0.84900
N214        N  0.03482051  0.10527672  0.89406132    -0.75800
C215        C  0.03495882  0.12193728  0.87539487     0.85000
N216        N  0.00778661  0.12012788  0.86850268    -0.77500
O217        O  0.36078889  0.11399003  0.80842494    -0.77900
O218        O  0.22758019  0.08955563  0.88563879    -0.79400
O219        O  0.28390977  0.04386852  0.84933760    -0.76400
O220        O  0.26225060  0.10589821  0.80866334    -0.74800
O221        O  0.28258285  0.15943440  0.80676474    -0.76600
O222        O  0.31486247  0.05016977  0.88039875    -0.77600
O223        O  0.23170067  0.06471505  0.85421253    -0.78900
O224        O  0.30726834  0.08036200  0.80896165    -0.79200
Eu225      Eu  0.28676805  0.09435891  0.84115277     2.39200
O226        O  0.27887190  0.13494050  0.85331266    -0.86700
O227        O  0.33642165  0.10449228  0.85371951    -0.90300
C228        C  0.33483701  0.09052917  0.80076651     1.04400
C229        C  0.21617465  0.06738142  0.87076641     1.04200
C230        C  0.29668802  0.03387768  0.86377795     1.04200
C231        C  0.26471949  0.13102022  0.79952915     1.02000
H232        H  0.27257932  0.07426925  0.88699930     0.31800
O233        O  0.28843051  0.09461628  0.88111462    -0.99100
H234        H  0.32624384  0.14263897  0.80991350     0.31800
O235        O  0.32672175  0.14321466  0.82634015    -1.01600
O236        O  0.29192796  0.17133087  0.92516807    -0.78800
O237        O  0.42746354  0.20044117  0.84626129    -0.78400
O238        O  0.30336277  0.08200094  0.92665455    -0.76800
O239        O  0.27287155  0.18859562  0.84749657    -0.80200
O240        O  0.35540350  0.20760685  0.80612685    -0.78000
O241        O  0.38400741  0.10020808  0.88388269    -0.76700
O242        O  0.39413827  0.18355712  0.92449622    -0.78200
O243        O  0.37355975  0.24579385  0.88284412    -0.80100
O244        O  0.37494247  0.13016512  0.92553411    -0.76800
O245        O  0.34428335  0.23961093  0.85076361    -0.79500
O246        O  0.26943057  0.10091112  0.92668226    -0.75300
O247        O  0.40636177  0.12844523  0.85117357    -0.75300
O248        O  0.38809323  0.18728159  0.80576317    -0.74900
O249        O  0.24945847  0.15949488  0.87971800    -0.78400
O250        O  0.34526715  0.20585392  0.92519749    -0.77800
O251        O  0.42327351  0.22562422  0.87753526    -0.76200
Eu252      Eu  0.27978386  0.13514942  0.89326367     2.39800
Eu253      Eu  0.37608208  0.15310491  0.83923150     2.39600
Eu254      Eu  0.33844283  0.10533402  0.89357511     2.38400
Eu255      Eu  0.31892628  0.18397984  0.83885513     2.39900
Eu256      Eu  0.36883122  0.19475970  0.89222945     2.39800
O257        O  0.36793503  0.19356033  0.85213773    -0.90600
O258        O  0.32933490  0.14532135  0.90608103    -0.89500
C259        C  0.31733134  0.19461736  0.93344583     1.04600
C260        C  0.43858925  0.22327088  0.86064054     1.03300
C261        C  0.28056081  0.08431358  0.93512082     1.02700
C262        C  0.25116604  0.17725948  0.86280650     1.04700
C263        C  0.37788687  0.20475101  0.79754927     1.03600
C264        C  0.40498045  0.11086453  0.86804058     1.02500
C265        C  0.39229779  0.15843679  0.93315718     1.02500
C266        C  0.36218162  0.25601551  0.86742269     1.05100
H267        H  0.39842917  0.15972255  0.88450759     0.32500
O268        O  0.37784400  0.15486064  0.87932910    -1.02800
H269        H  0.31478859  0.20013447  0.88440148     0.34600
O270        O  0.31923466  0.18433044  0.87902973    -1.05300
O271        O  0.43249166  0.45226111  0.97045214    -0.77900
O272        O  0.04217779  0.42252441  0.04541615    -0.79400
O273        O  0.02155077  0.44128119  0.96843437    -0.76400
O274        O  0.44155976  0.37697886  0.01114198    -0.74800
O275        O  0.41838975  0.38236660  0.04310695    -0.76600
O276        O  0.05719000  0.49450963  0.96867213    -0.77600
O277        O  0.01266841  0.39928027  0.01344989    -0.78900
O278        O  0.45108247  0.41805310  0.96938267    -0.79200
Eu279      Eu  0.48702190  0.42893012  0.00164710     2.39200
O280        O  0.48786577  0.42811533  0.04166632    -0.86700
O281        O  0.49758556  0.47882635  0.98897035    -0.90300
C282        C  0.43403540  0.42908520  0.96173714     1.04400
C283        C  0.03103814  0.40121962  0.02988678     1.04200
C284        C  0.04491553  0.46667558  0.96003337     1.04200
C285        C  0.42015992  0.36622737  0.02666441     1.02000
H286        H  0.05245916  0.46370027  0.00947524     0.31800
O287        O  0.03679162  0.46812165  0.01514091    -0.99100
H288        H  0.42694961  0.42247220  0.00981952     0.31800
O289        O  0.44757423  0.43825022  0.01516615    -1.01600
O290        O  0.06095698  0.50284474  0.08842373    -0.78800
O291        O  0.44820127  0.03210219  0.01384602    -0.78400
O292        O  0.09335279  0.02238044  0.01070960    -0.76800
O293        O  0.46030551  0.41219881  0.08725434    -0.80200
O294        O  0.39846965  0.43463186  0.04810653    -0.78000
O295        O  0.02839027  0.03992356  0.97096701    -0.76700
O296        O  0.04976667  0.07749381  0.04831762    -0.78200
O297        O  0.46706920  0.01388329  0.09056734    -0.80100
O298        O  0.07266228  0.07192058  0.01617975    -0.76800
O299        O  0.43656628  0.45875104  0.08767817    -0.79500
O300        O  0.09275015  0.49442289  0.04370942    -0.75300
O301        O  0.47518672  0.02068677  0.97153465    -0.75300
O302        O  0.40434687  0.46581005  0.01715328    -0.74900
O303        O  0.01335790  0.43105857  0.08762271    -0.78400
O304        O  0.04028090  0.03834705  0.08954794    -0.77800
O305        O  0.47850945  0.05629229  0.04532725    -0.76200
Eu306      Eu  0.03719886  0.46789706  0.05533627     2.39800
Eu307      Eu  0.45855565  0.48840667  0.00265796     2.39600
Eu308      Eu  0.04145636  0.01641549  0.00311816     2.38400
Eu309      Eu  0.44890513  0.43752253  0.05513385     2.39900
Eu310      Eu  0.00342187  0.02629689  0.05775127     2.39800
O311        O  0.45946483  0.48754620  0.04255221    -0.90600
O312        O  0.04297410  0.01778124  0.04312100    -0.89500
C313        C  0.05785061  0.02776618  0.09688187     1.04600
C314        C  0.46015508  0.05418420  0.02884888     1.03300
C315        C  0.10436477  0.01156824  0.02597744     1.02700
C316        C  0.48529528  0.41380578  0.09565965     1.04700
C317        C  0.38844659  0.44771474  0.03397900     1.03600
C318        C  0.00294140  0.03764588  0.96297077     1.02500
C319        C  0.07137580  0.08806897  0.03296622     1.02500
C320        C  0.44711458  0.48643948  0.09583059     1.05100
H321        H  0.00691051  0.04592959  0.01181880     0.32500
O322        O  0.00238001  0.02556486  0.01749100    -1.02800
H323        H  0.49792566  0.47667492  0.08524874     0.34600
O324        O  0.49810174  0.47729153  0.06881935    -1.05300
O325        O  0.39283447  0.16671000  0.42154907    -0.77900
O326        O  0.28740261  0.20264884  0.34713607    -0.79400
O327        O  0.38442987  0.24192944  0.38129387    -0.76400
O328        O  0.30354869  0.17883444  0.42304906    -0.74800
O329        O  0.26862522  0.12546869  0.42369320    -0.76600
O330        O  0.40731014  0.23741780  0.34879565    -0.77600
O331        O  0.31694040  0.22423280  0.37929317    -0.78900
O332        O  0.37511143  0.20163509  0.42244090    -0.79200
Eu333      Eu  0.33891155  0.19072754  0.39038574     2.39200
O334        O  0.28881394  0.15200697  0.37747453    -0.86700
O335        O  0.37750050  0.18063983  0.37603742    -0.90300
C336        C  0.39163793  0.19012468  0.43027968     1.04400
C337        C  0.29978300  0.22428318  0.36263608     1.04200
C338        C  0.40560503  0.25308378  0.36572132     1.04200
C339        C  0.28035368  0.15360944  0.43179860     1.02000
H340        H  0.34391985  0.21290036  0.34497732     0.31800
O341        O  0.33878264  0.19220716  0.35031237    -0.99100
H342        H  0.32918351  0.14052581  0.41951357     0.31800
O343        O  0.32884763  0.14090130  0.40308340    -1.01600
O344        O  0.26256355  0.11729332  0.30507116    -0.78800
O345        O  0.36698660  0.08101844  0.38077433    -0.78400
O346        O  0.36460120  0.20652868  0.30351515    -0.76800
O347        O  0.22798813  0.09784170  0.38180398    -0.80200
O348        O  0.29121470  0.07609893  0.42177304    -0.78000
O349        O  0.42785387  0.18650371  0.34427612    -0.76700
O350        O  0.35225637  0.10599175  0.30221317    -0.78200
O351        O  0.27061902  0.04173091  0.34434192    -0.80100
O352        O  0.38676967  0.15945793  0.30193099    -0.76800
O353        O  0.24790504  0.04660127  0.37682364    -0.79500
O354        O  0.31167383  0.18862654  0.30395746    -0.75300
O355        O  0.42216686  0.15564586  0.37548455    -0.75300
O356        O  0.34432654  0.09484663  0.42141231    -0.74900
O357        O  0.23393817  0.12907366  0.35077855    -0.78400
O358        O  0.28047303  0.08247409  0.30391034    -0.77800
O359        O  0.33725119  0.05853446  0.34884831    -0.76200
Eu360      Eu  0.28858680  0.15386764  0.33731837     2.39800
Eu361      Eu  0.36741141  0.13075291  0.38883011     2.39600
Eu362      Eu  0.37692788  0.18195699  0.33588609     2.38400
Eu363      Eu  0.27876557  0.10191524  0.39017005     2.39900
Eu364      Eu  0.31693233  0.09306714  0.33558751     2.39800
O365        O  0.31739247  0.09239979  0.37558368    -0.90600
O366        O  0.32676598  0.14301757  0.32323660    -0.89500
C367        C  0.26362448  0.09377771  0.29640091     1.04600
C368        C  0.35390154  0.05858949  0.36597446     1.03300
C369        C  0.33949793  0.20503497  0.29535823     1.02700
C370        C  0.21773943  0.11013764  0.36712869     1.04700
C371        C  0.31647910  0.07765583  0.42972936     1.03600
C372        C  0.43821867  0.17436365  0.35898092     1.02500
C373        C  0.37518154  0.13160804  0.29345952     1.02500
C374        C  0.24927298  0.03076155  0.35986884     1.05100
H375        H  0.38219305  0.12692654  0.34257002     0.32500
O376        O  0.36696334  0.13175444  0.34855906    -1.02800
H377        H  0.25803530  0.08825965  0.34462842     0.34600
O378        O  0.27868839  0.10390920  0.35000208    -1.05300
O379        O  0.22465118  0.41033545  0.71521893    -0.77900
O380        O  0.18557987  0.26914982  0.63987131    -0.79400
O381        O  0.26217427  0.35221697  0.68010468    -0.76400
O382        O  0.19991602  0.37165053  0.63793704    -0.74800
O383        O  0.14695307  0.35358960  0.63812455    -0.76600
O384        O  0.25654942  0.32442092  0.71301115    -0.77600
O385        O  0.22137009  0.32234005  0.63868588    -0.78900
O386        O  0.24652872  0.40295839  0.68329403    -0.79200
Eu387      Eu  0.21168643  0.34787598  0.67096308     2.39200
O388        O  0.16149992  0.30836144  0.65875094    -0.86700
O389        O  0.21246618  0.34936978  0.71101822    -0.90300
C390        C  0.24676702  0.41966305  0.70019473     1.04400
C391        C  0.20928373  0.29402237  0.63093098     1.04200
C392        C  0.27262746  0.34159632  0.69585890     1.04200
C393        C  0.17473415  0.36971236  0.62955541     1.02000
H394        H  0.21514547  0.29294717  0.68027134     0.31800
O395        O  0.19987686  0.29815888  0.68556457    -0.99100
H396        H  0.17899936  0.38037992  0.67799222     0.31800
O397        O  0.17390407  0.35994093  0.68391406    -1.01600
O398        O  0.10078282  0.20827191  0.68219095    -0.78800
O399        O  0.13787611  0.35018603  0.75617307    -0.78400
O400        O  0.20360769  0.25273983  0.71813389    -0.76800
O401        O  0.09885032  0.28368850  0.63891928    -0.80200
O402        O  0.11854647  0.36562168  0.68074881    -0.78000
O403        O  0.22608008  0.33737327  0.75790438    -0.76700
O404        O  0.12468000  0.24737273  0.75894003    -0.78200
O405        O  0.06278997  0.26789036  0.71730783    -0.80100
O406        O  0.17777697  0.26613312  0.75915777    -0.76800
O407        O  0.06846880  0.29611165  0.68462895    -0.79500
O408        O  0.17299476  0.22774737  0.68692744    -0.75300
O409        O  0.20837373  0.37231897  0.75741476    -0.75300
O410        O  0.14953260  0.39058785  0.71177594    -0.74900
O411        O  0.11596979  0.24826482  0.63918238    -0.78400
O412        O  0.07894701  0.21550441  0.71421296    -0.77800
O413        O  0.10217480  0.29695531  0.75739996    -0.76200
Eu414      Eu  0.14978843  0.25859899  0.67272947     2.39800
Eu415      Eu  0.17451639  0.36082345  0.72411812     2.39600
Eu416      Eu  0.20129492  0.30027798  0.72572370     2.38400
Eu417      Eu  0.12343869  0.31981621  0.67153966     2.39900
Eu418      Eu  0.11288647  0.27121021  0.72594655     2.39800
O419        O  0.12475397  0.32086233  0.71148299    -0.90600
O420        O  0.15119623  0.26021953  0.71292559    -0.89500
C421        C  0.07900030  0.19862212  0.69750878     1.04600
C422        C  0.11388250  0.32536916  0.76481463     1.03300
C423        C  0.19117024  0.23011040  0.70362071     1.02700
C424        C  0.10020676  0.26019915  0.63055984     1.04700
C425        C  0.13029199  0.38765977  0.69576341     1.03600
C426        C  0.22453413  0.36089741  0.76601039     1.02500
C427        C  0.14987211  0.24954948  0.76751519     1.02500
C428        C  0.05245642  0.27893245  0.70178483     1.05100
H429        H  0.16293507  0.31160333  0.75499873     0.32500
O430        O  0.16282626  0.31116701  0.73857112    -1.02800
H431        H  0.09112353  0.25498909  0.68038690     0.34600
O432        O  0.11185716  0.27034971  0.68580214    -1.05300
O433        O  0.19933537  0.28501255  0.13796204    -0.77900
O434        O  0.06027073  0.25558822  0.21354946    -0.79400
O435        O  0.11532898  0.21064445  0.17593854    -0.76400
O436        O  0.09991769  0.27765832  0.13617044    -0.74800
O437        O  0.12048551  0.33125286  0.13714351    -0.76600
O438        O  0.14417459  0.21437185  0.20768617    -0.77600
O439        O  0.06539031  0.23345254  0.18085975    -0.78900
O440        O  0.14581654  0.25143595  0.13664886    -0.79200
Eu441      Eu  0.12144854  0.26286803  0.16880585     2.39200
O442        O  0.11354328  0.30267023  0.18338702    -0.86700
O443        O  0.17020608  0.27121691  0.18212699    -0.90300
C444        C  0.17399563  0.26203137  0.12912574     1.04400
C445        C  0.04923999  0.23480009  0.19762939     1.04200
C446        C  0.12641504  0.19924144  0.19068823     1.04200
C447        C  0.10339194  0.30373984  0.12812187     1.02000
H448        H  0.10410828  0.23954944  0.21393345     0.31800
O449        O  0.12043215  0.26020631  0.20889633    -0.99100
H450        H  0.16354886  0.31388755  0.14059121     0.31800
O451        O  0.16291713  0.31291787  0.15701353    -1.01600
O452        O  0.12457277  0.33419480  0.25731985    -0.78800
O453        O  0.26267605  0.36888039  0.17955812    -0.78400
O454        O  0.13265383  0.24302754  0.25417543    -0.76800
O455        O  0.10766054  0.35640675  0.17929132    -0.80200
O456        O  0.19282853  0.37924880  0.14005988    -0.78000
O457        O  0.21478910  0.26289368  0.21343594    -0.76700
O458        O  0.22378191  0.34163687  0.25655875    -0.78200
O459        O  0.20804400  0.41049810  0.21802614    -0.80100
O460        O  0.20273732  0.28797046  0.25504523    -0.76800
O461        O  0.18007445  0.40728462  0.18581490    -0.79500
O462        O  0.09976819  0.26308261  0.25548953    -0.75300
O463        O  0.24079506  0.29513861  0.18305260    -0.75300
O464        O  0.22533935  0.35870646  0.13893148    -0.74900
O465        O  0.08298357  0.32581129  0.21068514    -0.78400
O466        O  0.17804901  0.36770294  0.25883022    -0.77800
O467        O  0.25706000  0.39115099  0.21196363    -0.76200
Eu468      Eu  0.11232434  0.30015439  0.22348914     2.39800
Eu469      Eu  0.21161028  0.32112189  0.17056617     2.39600
Eu470      Eu  0.16912184  0.26851900  0.22196154     2.38400
Eu471      Eu  0.15436530  0.35262266  0.17115875     2.39900
Eu472      Eu  0.20175267  0.35829694  0.22512474     2.39800
O473        O  0.20239480  0.36012105  0.18508851    -0.90600
O474        O  0.16084893  0.30807526  0.23662393    -0.89500
C475        C  0.14990139  0.35641439  0.26669657     1.04600
C476        C  0.27313973  0.39073009  0.19480215     1.03300
C477        C  0.11002556  0.24528751  0.26303957     1.02700
C478        C  0.08525061  0.34419586  0.19405910     1.04700
C479        C  0.21580109  0.37717134  0.13158625     1.03600
C480        C  0.23763131  0.27551895  0.19900736     1.02500
C481        C  0.22030126  0.31520455  0.26393392     1.02500
C482        C  0.19761109  0.42226480  0.20306628     1.05100
H483        H  0.23063157  0.32289286  0.21631069     0.32500
O484        O  0.21056791  0.31896838  0.21063166    -1.02800
H485        H  0.14867955  0.36564351  0.21739919     0.34600
O486        O  0.15300794  0.35005491  0.21138189    -1.05300
O487        O  0.46622642  0.00484860  0.59147744    -0.77900
O488        O  0.09977119  0.03137110  0.51305015    -0.79400
O489        O  0.06399591  0.01440026  0.59058942    -0.76400
O490        O  0.04674675  0.07891972  0.54937414    -0.74800
O491        O  0.01667368  0.07354511  0.51803404    -0.76600
O492        O  0.04100090  0.45670310  0.59134459    -0.77600
O493        O  0.09578194  0.05564117  0.54493107    -0.78900
O494        O  0.01976712  0.03842182  0.59110353    -0.79200
Eu495      Eu  0.04080341  0.02685069  0.55778196     2.39200
O496        O  0.04084945  0.02743890  0.51778308    -0.86700
O497        O  0.49812330  0.47394580  0.57206204    -0.90300
C498        C  0.49224542  0.02766670  0.59961899     1.04400
C499        C  0.11121551  0.05305151  0.52829966     1.04200
C500        C  0.05831355  0.48465975  0.59963588     1.04200
C501        C  0.03512702  0.08966315  0.53450664     1.02000
H502        H  0.06899328  0.99080338  0.55005323     0.31800
O503        O  0.04595012  0.48327309  0.54507108    -0.99100
H504        H  0.48706168  0.03376966  0.55135177     0.31800
O505        O  0.49112974  0.01780170  0.54576070    -1.01600
O506        O  0.03175534  0.44817497  0.47236244    -0.78800
O507        O  0.39694727  0.42057674  0.55161494    -0.78400
O508        O  0.05078587  0.42792510  0.54850102    -0.76800
O509        O  0.02615215  0.04129596  0.47257437    -0.80200
O510        O  0.44417219  0.02116157  0.51328850    -0.78000
O511        O  0.46938690  0.40946755  0.59125770    -0.76700
O512        O  0.44965049  0.37489433  0.51233347    -0.78200
O513        O  0.43145112  0.44318090  0.47508602    -0.80100
O514        O  0.47937133  0.37871492  0.54364408    -0.76800
O515        O  0.45238875  0.49683962  0.47619224    -0.79500
O516        O  0.07431112  0.45779960  0.51657773    -0.75300
O517        O  0.43729840  0.43049165  0.59265694    -0.75300
O518        O  0.41809361  0.49003377  0.54788295    -0.74900
O519        O  0.05897908  0.02117199  0.47132390    -0.78400
O520        O  0.47818442  0.41548340  0.47177110    -0.77800
O521        O  0.40037254  0.39737653  0.51890408    -0.76200
Eu522      Eu  0.04511131  0.48419931  0.50502103     2.39800
Eu523      Eu  0.44910976  0.46591574  0.56014465     2.39600
Eu524      Eu  0.00553408  0.43358187  0.55833576     2.38400
Eu525      Eu  0.49141047  0.01822449  0.50583287     2.39900
Eu526      Eu  0.45561417  0.42700659  0.50537201     2.39800
O527        O  0.44849474  0.46713084  0.52023260    -0.90600
O528        O  0.00446378  0.43508825  0.51825836    -0.89500
C529        C  0.00600953  0.42561477  0.46370957     1.04600
C530        C  0.38517388  0.39921434  0.53611904     1.03300
C531        C  0.07233399  0.43930702  0.53305281     1.02700
C532        C  0.04823858  0.03841263  0.46343957     1.04700
C533        C  0.42148998  0.00872974  0.52779789     1.03600
C534        C  0.44727198  0.41257597  0.60029523     1.02500
C535        C  0.46106427  0.36345310  0.52677712     1.02500
C536        C  0.43402831  0.46934448  0.46795944     1.05100
H537        H  0.44061310  0.40514931  0.55100554     0.32500
O538        O  0.45678478  0.42563509  0.54557567    -1.02800
H539        H  0.49570091  0.47720161  0.47637883     0.34600
O540        O  0.49623196  0.47665699  0.49280038    -1.05300
C541        C  0.00572167  0.05534029  0.94270323    -0.11000
C542        C  0.00735437  0.06990518  0.92565849    -0.12600
C543        C  0.45255473  0.10163880  0.87371857    -0.11000
C544        C  0.42990607  0.10417078  0.87013295    -0.12600
C545        C  0.14703887  0.23235080  0.78813904    -0.11000
C546        C  0.14691213  0.21863080  0.80531786    -0.12600
C547        C  0.22605121  0.18378530  0.86008765    -0.11000
C548        C  0.20365721  0.18675533  0.85612695    -0.12600
C549        C  0.09226880  0.14649590  0.86878441    -0.14200
C550        C  0.06421752  0.14257817  0.86269454    -0.29400
H551        H  0.09402835  0.13403957  0.88355463     0.14800
H552        H  0.06250299  0.15501111  0.84789057     0.15400
C553        C  0.08730964  0.30210779  0.10718091    -0.11000
C554        C  0.07430735  0.30126010  0.08947318    -0.12600
C555        C  0.03873417  0.37691462  0.03185488    -0.11000
C556        C  0.04299494  0.35534017  0.03585239    -0.12600
C557        C  0.45442168  0.07975470  0.02590056    -0.11000
C558        C  0.45325631  0.10306732  0.02138724    -0.12600
C559        C  0.42593690  0.16229638  0.96943040    -0.11000
C560        C  0.41108363  0.16185508  0.95289947    -0.12600
C561        C  0.50115153  0.21634240  0.03108448    -0.14200
C562        C  0.00674606  0.24492158  0.02428302    -0.29400
H563        H  0.51247569  0.21414367  0.04632802     0.14800
H564        H  0.99530537  0.24696782  0.00904621     0.15400
C565        C  0.03659189  0.35129955  0.18590802    -0.11000
C566        C  0.05964259  0.34984114  0.19071882    -0.12600
C567        C  0.48022347  0.38030676  0.13266571    -0.11000
C568        C  0.48176380  0.39515553  0.11570338    -0.12600
C569        C  0.34321824  0.23715131  0.25783395    -0.11000
C570        C  0.34251252  0.22296774  0.27497861    -0.12600
C571        C  0.28543129  0.26655390  0.20601260    -0.11000
C572        C  0.26267261  0.26888694  0.20192815    -0.12600
C573        C  0.42447930  0.30871525  0.19688099    -0.14200
C574        C  0.39624195  0.30491068  0.19146473    -0.29400
H575        H  0.42669914  0.29689488  0.21186671     0.14800
H576        H  0.39397008  0.31675234  0.17651242     0.15400
C577        C  0.17735085  0.38677458  0.60897951    -0.11000
C578        C  0.17697204  0.40015312  0.59179955    -0.12600
C579        C  0.11989048  0.42992511  0.53956672    -0.11000
C580        C  0.09733634  0.43255943  0.53543187    -0.12600
C581        C  0.31391568  0.05900638  0.44956527    -0.11000
C582        C  0.31426891  0.04444940  0.46616980    -0.12600
C583        C  0.37252477  0.01497193  0.51810947    -0.11000
C584        C  0.39538822  0.01346337  0.52358429    -0.12600
C585        C  0.25889327  0.47194949  0.53296308    -0.14200
C586        C  0.23095719  0.46829503  0.52675859    -0.29400
H587        H  0.26066119  0.46010448  0.54810226     0.14800
H588        H  0.22921622  0.48023891  0.51166797     0.15400
C589        C  0.11863598  0.43371019  0.69046412    -0.11000
C590        C  0.12243592  0.41176253  0.69380356    -0.12600
C591        C  0.08886773  0.48932986  0.63781785    -0.11000
C592        C  0.07531208  0.48751965  0.62024311    -0.12600
C593        C  0.19690717  0.20470896  0.70714763    -0.11000
C594        C  0.19936891  0.18225074  0.71191144    -0.12600
C595        C  0.23117596  0.12590307  0.76291255    -0.11000
C596        C  0.24615802  0.12726511  0.77960686    -0.12600
C597        C  0.15510120  0.04295396  0.70499674    -0.14200
C598        C  0.15974570  0.07140388  0.69917420    -0.29400
H599        H  0.16606580  0.04025733  0.72026612     0.14800
H600        H  0.14866676  0.07403367  0.68394511     0.15400
C601        C  0.35859873  0.00770659  0.37510469    -0.11000
C602        C  0.35689461  0.03081371  0.36966905    -0.12600
C603        C  0.41490356  0.46824612  0.44936603    -0.11000
C604        C  0.39904798  0.46782414  0.43368520    -0.12600
C605        C  0.29556174  0.25146542  0.36054980    -0.11000
C606        C  0.29323683  0.27465318  0.35696919    -0.12600
C607        C  0.25087929  0.31513417  0.30048261    -0.11000
C608        C  0.23727162  0.31561793  0.28367794    -0.12600
C609        C  0.31102711  0.38433558  0.36053048    -0.14200
C610        C  0.32942878  0.39413730  0.37885746    -0.29400
H611        H  0.30623203  0.40089849  0.35162233     0.14800
H612        H  0.33428170  0.37763152  0.38778323     0.15400
C613        C  0.41597885  0.48643389  0.13192345    -0.11000
C614        C  0.43096093  0.48767702  0.11549385    -0.12600
C615        C  0.30471096  0.41758698  0.19156308    -0.11000
C616        C  0.33004478  0.44051310  0.18664934    -0.12600
C617        C  0.40249284  0.12939562  0.25526431    -0.11000
C618        C  0.38924543  0.12930238  0.27259608    -0.12600
C619        C  0.49082386  0.18759489  0.20372114    -0.11000
C620        C  0.01676144  0.21005324  0.19972036    -0.12600
C621        C  0.39515158  0.04685126  0.19762213    -0.14200
C622        C  0.41880244  0.07556722  0.19139151    -0.29400
H623        H  0.38110589  0.04450377  0.21248578     0.14800
H624        H  0.43283906  0.07795453  0.17651477     0.15400
C625        C  0.46955748  0.18044190  0.35571456    -0.11000
C626        C  0.49416798  0.18216741  0.35124684    -0.12600
C627        C  0.09488535  0.22657146  0.28298959    -0.11000
C628        C  0.08112643  0.21166710  0.29977676    -0.12600
C629        C  0.06175800  0.05545581  0.44261852    -0.11000
C630        C  0.07378055  0.06910174  0.42504932    -0.12600
C631        C  0.16064914  0.10026822  0.37353738    -0.11000
C632        C  0.18604731  0.10333247  0.36986832    -0.12600
C633        C  0.06269733  0.13966473  0.36387347    -0.14200
C634        C  0.08703158  0.13597137  0.35854471    -0.29400
H635        H  0.04853640  0.12785871  0.37881119     0.14800
H636        H  0.10118333  0.14782838  0.34361388     0.15400
C637        C  0.33408021  0.44283173  0.04399044    -0.11000
C638        C  0.35786660  0.44341494  0.03836796    -0.12600
C639        C  0.23236648  0.39697497  0.11237651    -0.11000
C640        C  0.24742248  0.41286491  0.09628585    -0.12600
C641        C  0.26599634  0.06684684  0.95555305    -0.08000
C642        C  0.25210293  0.05249540  0.97242682    -0.12600
C643        C  0.13604190  0.01811320  0.02322176    -0.11000
C644        C  0.16122045  0.02027549  0.02013490    -0.12600
C645        C  0.24323122  0.49202196  0.04009267    -0.14200
C646        C  0.26786532  0.48877520  0.03475516    -0.29400
H647        H  0.22893785  0.47982826  0.05489365     0.14800
H648        H  0.28206114  0.50088306  0.01989627     0.15400
C649        C  0.22370194  0.29038354  0.61062590    -0.11000
C650        C  0.23760268  0.29027396  0.59365253    -0.12600
C651        C  0.35299145  0.37445910  0.53925665    -0.11000
C652        C  0.32737213  0.35212018  0.54375862    -0.12600
C653        C  0.16891099  0.09973883  0.52176193    -0.11000
C654        C  0.14340440  0.07727007  0.52576340    -0.12600
C655        C  0.26658412  0.15719371  0.45230748    -0.11000
C656        C  0.25444092  0.15926493  0.46952685    -0.12600
C657        C  0.25870866  0.24095289  0.52861316    -0.14200
C658        C  0.23581889  0.21161180  0.53398926    -0.29400
H659        H  0.27328081  0.24478085  0.51376173     0.14800
H660        H  0.22139214  0.20785572  0.54891702     0.15400
C661        C  0.40680793  0.23588012  0.75998375    -0.11000
C662        C  0.39294246  0.22217120  0.77710486    -0.12600
C663        C  0.02086349  0.27248231  0.70457317    -0.11000
C664        C  0.49542082  0.26892351  0.70895882    -0.12600
C665        C  0.32930851  0.35078108  0.68854574    -0.11000
C666        C  0.30422622  0.34800515  0.69311331    -0.12600
C667        C  0.43203173  0.39477111  0.62052998    -0.11000
C668        C  0.41738712  0.38094949  0.63736529    -0.12600
C669        C  0.39815426  0.30877275  0.70082552    -0.14200
C670        C  0.42171161  0.30430349  0.69466349    -0.29400
H671        H  0.38443999  0.29724368  0.71598959     0.14800
H672        H  0.43545256  0.31590890  0.67952125     0.15400
C673        C  0.15835898  0.02030253  0.87756308    -0.11000
C674        C  0.18404637  0.04276792  0.87369816    -0.12600
C675        C  0.07061572  0.46350452  0.92168431    -0.11000
C676        C  0.05832095  0.46394277  0.93921956    -0.12600
C677        C  0.49507873  0.27174455  0.85145930    -0.11000
C678        C  0.47010406  0.24895310  0.85662667    -0.12600
C679        C  0.08415254  0.33010182  0.80059227    -0.11000
C680        C  0.09863841  0.32928629  0.78432617    -0.12600
C681        C  0.06322330  0.38460374  0.86147843    -0.14200
C682        C  0.08726778  0.41337181  0.85589499    -0.29400
H683        H  0.04861487  0.38184692  0.87608663     0.14800
H684        H  0.10191523  0.41622885  0.84129148     0.15400
C685        C  0.22946101  0.06373485  0.26038511    -0.11000
C686        C  0.24447262  0.07844003  0.27678421    -0.12600
C687        C  0.20693730  0.47914433  0.21121345    -0.11000
C688        C  0.20445457  0.45402822  0.20679611    -0.12600
C689        C  0.09044021  0.05535537  0.13384459    -0.11000
C690        C  0.07625066  0.04229575  0.11681812    -0.12600
C691        C  0.12003188  0.16767162  0.18735327    -0.11000
C692        C  0.11839339  0.14276119  0.18391668    -0.12600
C693        C  0.15687692  0.07106943  0.20032611    -0.14200
C694        C  0.15979726  0.04599530  0.19557764    -0.29400
H695        H  0.16873710  0.08551122  0.21508572     0.14800
H696        H  0.14785318  0.03151094  0.18085199     0.15400
C697        C  0.20245273  0.47119429  0.35563668    -0.11000
C698        C  0.22416083  0.99867117  0.35720787    -0.12600
C699        C  0.14524976  0.38241722  0.30485969    -0.11000
C700        C  0.14660769  0.36989621  0.28755567    -0.12600
C701        C  0.00857582  0.41037885  0.44349562    -0.11000
C702        C  0.00985175  0.39673088  0.42677643    -0.12600
C703        C  0.43011777  0.28518797  0.36855173    -0.11000
C704        C  0.45196088  0.31045390  0.37396937    -0.12600
C705        C  0.06391168  0.37548443  0.36485926    -0.14200
C706        C  0.09275956  0.39893963  0.37019656    -0.29400
H707        H  0.06070386  0.36090325  0.35013977     0.14800
H708        H  0.09595603  0.41362776  0.38484509     0.15400
C709        C  0.09696376  0.11999239  0.03577763    -0.11000
C710        C  0.11954725  0.14534092  0.04048098    -0.12600
C711        C  0.17709081  0.24679843  0.10921547    -0.11000
C712        C  0.17768747  0.23290438  0.09247509    -0.12600
C713        C  0.31277408  0.22208760  0.97047704    -0.11000
C714        C  0.31426334  0.20921630  0.95354864    -0.12600
C715        C  0.39514180  0.33417501  0.02472177    -0.11000
C716        C  0.37198525  0.30883901  0.02148906    -0.12600
C717        C  0.25985480  0.24020037  0.03409210    -0.14200
C718        C  0.23112949  0.21651670  0.02828404    -0.29400
H719        H  0.26267057  0.25429701  0.04901810     0.14800
H720        H  0.22836926  0.20243436  0.01335964     0.15400
C721        C  0.06950492  0.23300338  0.59249648    -0.11000
C722        C  0.08300485  0.24609448  0.60986218    -0.12600
C723        C  0.04140896  0.12141474  0.53739691    -0.11000
C724        C  0.04305005  0.14633876  0.54116001    -0.12600
C725        C  0.45174386  0.30648834  0.51847368    -0.11000
C726        C  0.45423588  0.33163262  0.52296419    -0.12600
C727        C  0.42371468  0.21850589  0.46761889    -0.11000
C728        C  0.40978522  0.20469283  0.45055970    -0.12600
C729        C  0.49433987  0.23787636  0.53254298    -0.14200
C730        C  0.99986257  0.21458180  0.52700172    -0.29400
H731        H  0.50565307  0.25218334  0.54746539     0.14800
H732        H  0.98868806  0.20039775  0.51200416     0.15400
C733        C  0.36806870  0.28755508  0.87002780    -0.11000
C734        C  0.36964846  0.31227044  0.87424638    -0.12600
C735        C  0.40006234  0.39977167  0.92545989    -0.11000
C736        C  0.41519662  0.41396399  0.94195999    -0.12600
C737        C  0.24172580  0.37564971  0.78645218    -0.11000
C738        C  0.25480066  0.38936980  0.80368370    -0.12600
C739        C  0.28313260  0.47593508  0.85572991    -0.11000
C740        C  0.29177220  0.00274564  0.85999357    -0.12600
C741        C  0.32510497  0.37968329  0.86388763    -0.14200
C742        C  0.32099751  0.40364592  0.86982822    -0.29400
H743        H  0.31316903  0.36564078  0.84898569     0.14800
H744        H  0.33288730  0.41767755  0.88474374     0.15400
C745        C  0.02913310  0.14138889  0.69073487    -0.11000
C746        C  0.05187835  0.16708743  0.69499440    -0.12600
C747        C  0.49078608  0.04261220  0.61985775    -0.11000
C748        C  0.48998689  0.05577110  0.63671708    -0.12600
C749        C  0.29791297  0.47565819  0.70789259    -0.11000
C750        C  0.27459592  0.45058931  0.70321739    -0.12600
C751        C  0.33628151  0.07419450  0.78138705    -0.11000
C752        C  0.33684696  0.06021029  0.76496583    -0.12600
C753        C  0.40929801  0.06353727  0.70979386    -0.14200
C754        C  0.41868109  0.05197722  0.69318259    -0.29400
H755        H  0.42616322  0.08587964  0.71757045     0.14800
H756        H  0.40181641  0.02956431  0.68548820     0.15400
C757        C  0.32341448  0.50516638  0.71670383     0.82500
N758        N  0.35303302  0.51963051  0.70757767    -0.75800
C759        C  0.37637609  0.54741164  0.71664422     0.84900
N760        N  0.36992106  0.56012922  0.73451041    -0.75800
C761        C  0.34088999  0.54570590  0.74363451     0.85000
N762        N  0.31757922  0.51825802  0.73486609    -0.77500
C763        C  0.00532117  0.61173425  0.68316352     0.82500
N764        N  0.47597733  0.59739556  0.69285408    -0.75800
C765        C  0.45237044  0.56932069  0.68433619     0.84900
N766        N  0.45812135  0.55629702  0.66632292    -0.75800
C767        C  0.48667772  0.57054718  0.65649015     0.85000
N768        N  0.01043539  0.59826816  0.66481885    -0.77500
C769        C  0.29163261  0.95113433  0.84724191     0.82500
N770        N  0.31028210  0.94272260  0.85858537    -0.75800
C771        C  0.31314433  0.91821113  0.85125120     0.84900
N772        N  0.29717110  0.90202593  0.83238697    -0.75800
C773        C  0.27849528  0.91032095  0.82092250     0.85000
N774        N  0.27580540  0.93498217  0.82831123    -0.77500
C775        C  0.37687901  0.84263756  0.87782009     0.82500
N776        N  0.36030845  0.85214087  0.86486765    -0.75800
C777        C  0.35778668  0.87721104  0.87128378     0.84900
N778        N  0.37181659  0.89263410  0.89085301    -0.75800
C779        C  0.38829308  0.88320815  0.90390090     0.85000
N780        N  0.39069847  0.85804976  0.89745479    -0.77500
C781        C  0.45657617  0.78064567  0.51403856     0.82500
N782        N  0.47480446  0.77228797  0.52605167    -0.75800
C783        C  0.47628780  0.74644079  0.52013739     0.84900
N784        N  0.45932682  0.72886285  0.50199872    -0.75800
C785        C  0.44102431  0.73707774  0.48989625     0.85000
N786        N  0.43975431  0.76306435  0.49587764    -0.77500
C787        C  0.04074419  0.67210009  0.54920729     0.82500
N788        N  0.05562864  0.68898542  0.56805763    -0.75800
C789        C  0.05329636  0.71435780  0.57382908     0.84900
N790        N  0.03585586  0.72270744  0.56084930    -0.75800
C791        C  0.02071972  0.70581151  0.54198687     0.85000
N792        N  0.02319022  0.68043754  0.53625621    -0.77500
C793        C  0.33681489  0.77858437  0.01554535     0.82500
N794        N  0.34210095  0.76561362  0.99706493    -0.75800
C795        C  0.31828962  0.73876173  0.98799464     0.84900
N796        N  0.28926770  0.72485580  0.99713526    -0.75800
C797        C  0.28342526  0.73747240  0.01539000     0.85000
N798        N  0.30727826  0.76467331  0.02471035    -0.77500
C799        C  0.15474889  0.67585558  0.04796316     0.82500
N800        N  0.14904752  0.68998040  0.06551760    -0.75800
C801        C  0.17261283  0.71756094  0.07394285     0.84900
N802        N  0.20179706  0.73096599  0.06516101    -0.75800
C803        C  0.20805424  0.71723185  0.04784937     0.85000
N804        N  0.18445322  0.68936314  0.03913335    -0.77500
C805        C  0.47977796  0.83836413  0.38263137     0.82500
N806        N  0.00583113  0.84681771  0.37004658    -0.75800
C807        C  0.03376137  0.87255881  0.37570898     0.84900
N808        N  0.03556142  0.88982222  0.39426422    -0.75800
C809        C  0.50933762  0.88139545  0.40684898     0.85000
N810        N  0.48156310  0.85544174  0.40114579    -0.77500
C811        C  0.14329842  0.90092142  0.32364384     0.82500
N812        N  0.11711201  0.89299732  0.33604722    -0.75800
C813        C  0.11889074  0.91069018  0.35431455     0.84900
N814        N  0.14690891  0.93625776  0.36002751    -0.75800
C815        C  0.17306932  0.94431887  0.34771054     0.85000
N816        N  0.17128260  0.92676725  0.32940558    -0.77500
C817        C  0.11926939  0.61224753  0.17961257     0.82500
N818        N  0.13788136  0.60472371  0.19191346    -0.75800
C819        C  0.14057713  0.57958387  0.18603913     0.84900
N820        N  0.12459300  0.56202617  0.16759373    -0.75800
C821        C  0.10600824  0.56962425  0.15523835     0.85000
N822        N  0.10347162  0.59479782  0.16121902    -0.77500
C823        C  0.21803946  0.54947807  0.24119388     0.82500
N824        N  0.22064555  0.52413426  0.23559016    -0.75800
C825        C  0.20599393  0.50712878  0.21666211     0.84900
N826        N  0.18848916  0.51526826  0.20356044    -0.75800
C827        C  0.18571779  0.54046367  0.20908417     0.85000
N828        N  0.20054044  0.55752412  0.22797143    -0.77500
C829        C  0.02577145  0.79857905  0.84431999     0.82500
N830        N  0.04362190  0.80115561  0.82604480    -0.75800
C831        C  0.06901703  0.82957059  0.82042033     0.84900
N832        N  0.07635299  0.85550077  0.83305803    -0.75800
C833        C  0.05830331  0.85292575  0.85136960     0.85000
N834        N  0.03307734  0.82441317  0.85684249    -0.77500
C835        C  0.12974825  0.99135996  0.88253370     0.82500
N836        N  0.12181157  0.96556200  0.86979605    -0.75800
C837        C  0.09604393  0.93733889  0.87501006     0.84900
N838        N  0.07805596  0.93499654  0.89330072    -0.75800
C839        C  0.08597917  0.96091407  0.90614869     0.85000
N840        N  0.11315367  0.49352084  0.89552226    -0.77500
C841        C  0.40238843  0.86662596  0.65655634     0.82500
N842        N  0.41093658  0.84896857  0.66912116    -0.75800
C843        C  0.39397718  0.83291682  0.68778281     0.84900
N844        N  0.36837911  0.83459881  0.69375433    -0.75800
C845        C  0.35977033  0.85227023  0.68126516     0.85000
N846        N  0.37667760  0.86818655  0.66256327    -0.77500
C847        C  0.46946294  0.76988127  0.71492169     0.82500
N848        N  0.45246158  0.75332661  0.73337616    -0.75800
C849        C  0.42672049  0.75464384  0.73960492     0.84900
N850        N  0.41819478  0.77271145  0.72751416    -0.75800
C851        C  0.43530062  0.78941425  0.70908287     0.85000
N852        N  0.46094220  0.78795681  0.70289029    -0.77500
C853        C  0.19397167  0.62670528  0.51922210     0.82500
N854        N  0.20199168  0.65346863  0.53083147    -0.75800
C855        C  0.22663426  0.68157696  0.52380498     0.84900
N856        N  0.24300197  0.68273405  0.50488046    -0.75800
C857        C  0.23470972  0.65583417  0.49327786     0.85000
N858        N  0.21015016  0.62794717  0.50039532    -0.77500
C859        C  0.30177384  0.82196577  0.55029519     0.82500
N860        N  0.28444043  0.82074572  0.56860639    -0.75800
C861        C  0.25820263  0.79306026  0.57454491     0.84900
N862        N  0.24957844  0.76660714  0.56226966    -0.75800
C863        C  0.26693798  0.76770963  0.54399274     0.85000
N864        N  0.29299172  0.79544271  0.53811046    -0.77500
C865        C  0.19643322  0.52577336  0.01751026     0.82500
N866        N  0.19751145  0.00189088  0.02790936    -0.75800
C867        C  0.22347850  0.00037548  0.02260325     0.84900
N868        N  0.24958027  0.52543708  0.00651970    -0.75800
C869        C  0.23922739  0.54070299  0.99289760     0.85000
N870        N  0.21254998  0.54069712  0.99834221    -0.77500
C871        C  0.29760204  0.93586863  0.05150395     0.82500
N872        N  0.28933331  0.95393632  0.03912805    -0.75800
C873        C  0.26388347  0.95598063  0.04505661     0.84900
N874        N  0.24664776  0.93981539  0.06362322    -0.75800
C875        C  0.25474265  0.92169574  0.07614829     0.85000
N876        N  0.28034418  0.91981015  0.07011342    -0.77500
C877        C  0.12801419  0.59601492  0.38124630     0.82500
N878        N  0.11176344  0.58087744  0.40024471    -0.75800
C879        C  0.08656651  0.58293662  0.40660256     0.84900
N880        N  0.07769429  0.60037042  0.39410701    -0.75800
C881        C  0.09397795  0.61572458  0.37505056     0.85000
N882        N  0.11928853  0.61362179  0.36871901    -0.77500
C883        C  0.01879995  0.67948647  0.34769255     0.82500
N884        N  0.02724224  0.66158929  0.36014235    -0.75800
C885        C  0.05244434  0.65928054  0.35388960     0.84900
N886        N  0.06912476  0.67492655  0.33505420    -0.75800
C887        C  0.06074893  0.69273276  0.32254210     0.85000
N888        N  0.03549367  0.69496391  0.32880079    -0.77500
C889        C  0.41606065  0.62739747  0.24269925     0.82500
N890        N  0.40320582  0.59854505  0.23328478    -0.75800
C891        C  0.41754493  0.59341236  0.21577131     0.84900
N892        N  0.44534114  0.61774743  0.20753380    -0.75800
C893        C  0.45825668  0.64701480  0.21701668     0.85000
N894        N  0.44359040  0.65164613  0.23471856    -0.77500
C895        C  0.39576631  0.99074502  0.15557784     0.82500
N896        N  0.41346436  0.51695316  0.16200347    -0.75800
C897        C  0.39972562  0.52095296  0.18039685     0.84900
N898        N  0.36131800  0.99004542  0.19176206    -0.75800
C899        C  0.35274086  0.96281680  0.18059705     0.85000
N900        N  0.36991648  0.96317910  0.16240017    -0.77500
C901        C  0.26605685  0.81837398  0.32203066     0.82500
N902        N  0.26944538  0.79468069  0.33090953    -0.75800
C903        C  0.28851827  0.80015759  0.34926137     0.84900
N904        N  0.30438697  0.82984567  0.35851276    -0.75800
C905        C  0.30069995  0.85351749  0.34929922     0.85000
N906        N  0.28158727  0.84734123  0.33122554    -0.77500
C907        C  0.36186553  0.98193559  0.38455039     0.82500
N908        N  0.34734704  0.95254084  0.37485749    -0.75800
C909        C  0.35083194  0.92895987  0.38446579     0.84900
N910        N  0.36840978  0.93493515  0.40339473    -0.75800
C911        C  0.38253828  0.96361237  0.41306327     0.85000
N912        N  0.37651636  0.48630468  0.40496296    -0.77500
C913        C  0.20287895  0.65606734  0.71520084     0.82500
N914        N  0.18436956  0.62915636  0.70352520    -0.75800
C915        C  0.18183623  0.60155525  0.71031979     0.84900
N916        N  0.19797595  0.60100776  0.72904697    -0.75800
C917        C  0.21650134  0.62799745  0.74080200     0.85000
N918        N  0.21879490  0.65548537  0.73391402    -0.77500
C919        C  0.11764487  0.96115743  0.68410089     0.82500
N920        N  0.13400014  0.98719105  0.69711262    -0.75800
C921        C  0.13646210  0.51541289  0.69017546     0.84900
N922        N  0.12122791  0.51592230  0.67089075    -0.75800
C923        C  0.10529654  0.99015368  0.65842786     0.85000
N924        N  0.10347480  0.96265032  0.66466189    -0.77500
C925        C  0.34262721  0.51386944  0.51563416     0.82500
N926        N  0.34201084  0.52931413  0.49648388    -0.75800
C927        C  0.31435726  0.52621335  0.48919402     0.84900
N928        N  0.28751083  0.50766466  0.50095860    -0.75800
C929        C  0.28798445  0.49212543  0.52002694     0.85000
N930        N  0.31559221  0.49524297  0.52728302    -0.77500
C931        C  0.15085595  0.93237483  0.54575249     0.82500
N932        N  0.17699139  0.94860523  0.53271937    -0.75800
C933        C  0.20416384  0.94972110  0.53864887     0.84900
N934        N  0.20507851  0.93453247  0.55786070    -0.75800
C935        C  0.17895488  0.91832222  0.57096797     0.85000
N936        N  0.15189295  0.91738637  0.56495228    -0.77500
C937        C  0.31640455  0.77236684  0.21746334     0.82500
N938        N  0.34525223  0.78672687  0.20688735    -0.75800
C939        C  0.36927629  0.78371330  0.21605798     0.84900
N940        N  0.36431088  0.76689151  0.23531985    -0.75800
C941        C  0.33634706  0.75317588  0.24588117     0.85000
N942        N  0.31222990  0.75569493  0.23705919    -0.77500
C943        C  0.99705775  0.84224670  0.18053652     0.82500
N944        N  0.46784667  0.82872813  0.19050198    -0.75800
C945        C  0.44508978  0.83368888  0.18122907     0.84900
N946        N  0.45156007  0.85146144  0.16226609    -0.75800
C947        C  0.47986733  0.86414845  0.15218733     0.85000
N948        N  0.00281531  0.85989559  0.16131027    -0.77500
C949        C  0.45707382  0.63214810  0.01334641     0.82500
N950        N  0.47454721  0.65890673  0.02543797    -0.75800
C951        C  0.47640398  0.68626652  0.01882925     0.84900
N952        N  0.46059419  0.68676664  0.99993411    -0.75800
C953        C  0.44306880  0.66000989  0.98775029     0.85000
N954        N  0.44143386  0.63268516  0.99440008    -0.77500
C955        C  0.03773824  0.82539649  0.04642235     0.82500
N956        N  0.05259059  0.82430524  0.06565945    -0.75800
C957        C  0.05128567  0.79698056  0.07184628     0.84900
N958        N  0.03481111  0.77077362  0.05893787    -0.75800
C959        C  0.01978760  0.77178857  0.03974886     0.85000
N960        N  0.02128900  0.79914216  0.03360605    -0.77500
C961        C  0.17933703  0.69024366  0.85031215     0.82500
N962        N  0.17886811  0.70585293  0.83128507    -0.75800
C963        C  0.15179225  0.70453330  0.82476802     0.84900
N964        N  0.12515149  0.68734224  0.83711006    -0.75800
C965        C  0.12544554  0.67153449  0.85610314     0.85000
N966        N  0.15260646  0.67298353  0.86261045    -0.77500
C967        C  0.48438551  0.60493601  0.88026950     0.82500
N968        N  0.48491161  0.58827031  0.89863949    -0.75800
C969        C  0.51237204  0.59058159  0.90536021     0.84900
N970        N  0.03934290  0.60981205  0.89384971    -0.75800
C971        C  0.03904518  0.62665000  0.87549260     0.85000
N972        N  0.01149530  0.62417862  0.86872119    -0.77500
O973        O  0.36086671  0.61315288  0.80612813    -0.77900
O974        O  0.22935748  0.59202245  0.88340673    -0.79400
O975        O  0.28136138  0.54378392  0.84844962    -0.76400
O976        O  0.26348989  0.60726856  0.80687541    -0.74800
O977        O  0.28427539  0.66085226  0.80517884    -0.76600
O978        O  0.31276777  0.54941098  0.87908455    -0.77600
O979        O  0.23274940  0.56776284  0.85136796    -0.78900
O980        O  0.30721395  0.58056049  0.80710547    -0.79200
Eu981      Eu  0.28774815  0.59543871  0.83937571     2.39200
O982        O  0.28068243  0.63630954  0.85201352    -0.86700
O983        O  0.33691747  0.60364298  0.85156322    -0.90300
C984        C  0.33452999  0.59011422  0.79868333     1.04400
C985        C  0.21745301  0.57060970  0.86791201     1.04200
C986        C  0.29342058  0.53320127  0.86300366     1.04200
C987        C  0.26621116  0.63252673  0.79781182     1.02000
H988        H  0.27335159  0.57528990  0.88527271     0.31800
O989        O  0.28960856  0.59543542  0.87937462    -0.99100
H990        H  0.32734403  0.64308900  0.80803665     0.31800
O991        O  0.32807066  0.64367517  0.82446086    -1.01600
O992        O  0.29822833  0.67393876  0.92365545    -0.78800
O993        O  0.42936110  0.69820209  0.84346494    -0.78400
O994        O  0.30484421  0.58289291  0.92515513    -0.76800
O995        O  0.27569547  0.69036616  0.84677982    -0.80200
O996        O  0.35714997  0.70807155  0.80466490    -0.78000
O997        O  0.38504124  0.59949894  0.88241657    -0.76700
O998        O  0.39669981  0.68262439  0.92185987    -0.78200
O999        O  0.37832961  0.74629457  0.88023201    -0.80100
O1000       O  0.37581808  0.62899332  0.92350004    -0.76800
O1001       O  0.34795717  0.74067351  0.84894714    -0.79500
O1002       O  0.27148575  0.60247829  0.92549269    -0.75300
O1003       O  0.40754214  0.62750226  0.84964087    -0.75300
O1004       O  0.38927415  0.68704883  0.80396262    -0.74900
O1005       O  0.25293607  0.66216294  0.87945598    -0.78400
O1006       O  0.35177106  0.70744093  0.92243199    -0.77800
O1007       O  0.42635702  0.72376703  0.87490166    -0.76200
Eu1008     Eu  0.28237315  0.63660628  0.89194124     2.39800
Eu1009     Eu  0.37710533  0.65199661  0.83694384     2.39600
Eu1010     Eu  0.33930054  0.60486071  0.89151999     2.38400
Eu1011     Eu  0.32099217  0.68479998  0.83727648     2.39900
Eu1012     Eu  0.37208399  0.69452399  0.88943031     2.39800
O1013       O  0.37010564  0.69329390  0.84954038    -0.90600
O1014       O  0.33189410  0.64585734  0.90391262    -0.89500
C1015       C  0.32446207  0.69694046  0.93125176     1.04600
C1016       C  0.44116919  0.72089294  0.85794768     1.03300
C1017       C  0.28249769  0.58576036  0.93390188     1.02700
C1018       C  0.25451714  0.67973796  0.86247673     1.04700
C1019       C  0.37942702  0.70498219  0.79605081     1.03600
C1020       C  0.40639269  0.61038223  0.86680492     1.02500
C1021       C  0.39391099  0.65726393  0.93087601     1.02500
C1022       C  0.36690011  0.75697886  0.86520039     1.05100
H1023       H  0.39988774  0.65831965  0.88206243     0.32500
O1024       O  0.37938637  0.65370803  0.87689261    -1.02800
H1025       H  0.31877140  0.70162231  0.88285535     0.34600
O1026       O  0.32241212  0.68532949  0.87735179    -1.05300
O1027       O  0.42816175  0.94935814  0.97204249    -0.77900
O1028       O  0.03841324  0.92262207  0.04784991    -0.79400
O1029       O  0.01624028  0.93773981  0.97175004    -0.76400
O1030       O  0.43354742  0.87526429  0.01496749    -0.74800
O1031       O  0.41194689  0.88157504  0.04749013    -0.76600
O1032       O  0.05074842  0.99125620  0.97031730    -0.77600
O1033       O  0.00620424  0.89650723  0.01764905    -0.78900
O1034       O  0.44720234  0.91550226  0.97168388    -0.79200
Eu1035     Eu  0.48119278  0.92638364  0.00479384     2.39200
O1036       O  0.48368078  0.92802482  0.04466875    -0.86700
O1037       O  0.49122723  0.97593634  0.99136463    -0.90300
C1038       C  0.43062810  0.92662337  0.96337859     1.04400
C1039       C  0.02572095  0.89971383  0.03358280     1.04200
C1040       C  0.03925060  0.96292947  0.96267528     1.04200
C1041       C  0.41221559  0.86505466  0.03066291     1.02000
H1042       H  0.04714063  0.96228235  0.01060540     0.31800
O1043       O  0.03161309  0.96686183  0.01632744    -0.99100
H1044       H  0.42166197  0.92065472  0.01354393     0.31800
O1045       O  0.44237980  0.93645642  0.01870398    -1.01600
O1046       O  0.05984924  0.00501611  0.08799137    -0.78800
O1047       O  0.45447199  0.53460559  0.01189742    -0.78400
O1048       O  0.09859692  0.52321734  0.01130878    -0.76800
O1049       O  0.46041150  0.91314210  0.08948983    -0.80200
O1050       O  0.39360229  0.93323640  0.05189169    -0.78000
O1051       O  0.03541360  0.54291341  0.97000341    -0.76700
O1052       O  0.05771417  0.57814016  0.04767843    -0.78200
O1053       O  0.47049243  0.51241126  0.08780663    -0.80100
O1054       O  0.08031449  0.57288050  0.01530093    -0.76800
O1055       O  0.43342866  0.96028386  0.09187777    -0.79500
O1056       O  0.08870001  0.99391049  0.04297628    -0.75300
O1057       O  0.48218227  0.52371004  0.96989469    -0.75300
O1058       O  0.39765308  0.96146162  0.01953049    -0.74900
O1059       O  0.01390331  0.93355936  0.08829906    -0.78400
O1060       O  0.04275584  0.53738720  0.08930681    -0.77800
O1061       O  0.48453509  0.55823656  0.04358001    -0.76200
Eu1062     Eu  0.03397163  0.96882985  0.05612018     2.39800
Eu1063     Eu  0.45219102  0.98561279  0.00482908     2.39600
Eu1064     Eu  0.04748691  0.51803445  0.00210092     2.38400
Eu1065     Eu  0.44464877  0.93718881  0.05889752     2.39900
Eu1066     Eu  0.00870178  0.52734300  0.05601856     2.39800
O1067       O  0.45399691  0.98616496  0.04491235    -0.90600
O1068       O  0.04748578  0.51744204  0.04217219    -0.89500
C1069       C  0.05904009  0.52568913  0.09733165     1.04600
C1070       C  0.46628269  0.55641185  0.02706926     1.03300
C1071       C  0.10908873  0.51254035  0.02705693     1.02700
C1072       C  0.48635442  0.91557240  0.09668523     1.04700
C1073       C  0.38241988  0.94430259  0.03696513     1.03600
C1074       C  0.01015172  0.54086831  0.96170306     1.02500
C1075       C  0.07973813  0.58872105  0.03249233     1.02500
C1076       C  0.44406888  0.98843543  0.09951919     1.05100
H1077       H  0.01366177  0.54859379  0.01040090     0.32500
O1078       O  0.00867471  0.52797890  0.01583583    -1.02800
H1079       H  0.49545188  0.97740903  0.08761015     0.34600
O1080       O  0.49466260  0.97735219  0.07118081    -1.05300
O1081       O  0.39061419  0.66566578  0.42534536    -0.77900
O1082       O  0.28365886  0.70076084  0.35163163    -0.79400
O1083       O  0.38233296  0.74073912  0.38714950    -0.76400
O1084       O  0.29970281  0.67666029  0.42713155    -0.74800
O1085       O  0.26517942  0.62311197  0.42743975    -0.76600
O1086       O  0.40490064  0.73651208  0.35443273    -0.77600
O1087       O  0.31451696  0.72364756  0.38302950    -0.78900
O1088       O  0.37187757  0.69974230  0.42708272    -0.79200
Eu1089     Eu  0.33562796  0.68935498  0.39517735     2.39200
O1090       O  0.28531473  0.64996173  0.38262301    -0.86700
O1091       O  0.37458774  0.67981456  0.38105616    -0.90300
C1092       C  0.38911790  0.68875243  0.43436540     1.04400
C1093       C  0.29702676  0.72328259  0.36638972     1.04200
C1094       C  0.40364167  0.75194830  0.37160272     1.04200
C1095       C  0.27659518  0.65117988  0.43554732     1.02000
H1096       H  0.34009462  0.71159879  0.35017866     0.31800
O1097       O  0.33490704  0.69085908  0.35540394    -0.99100
H1098       H  0.32608230  0.63847283  0.42355867     0.31800
O1099       O  0.32573073  0.63910476  0.40713269    -1.01600
O1100       O  0.26120195  0.61744371  0.30876896    -0.78800
O1101       O  0.36422554  0.57998849  0.38397680    -0.78400
O1102       O  0.35910863  0.70638361  0.30980750    -0.76800
O1103       O  0.22399517  0.59386172  0.38567913    -0.80200
O1104       O  0.28874718  0.57367510  0.42536087    -0.78000
O1105       O  0.42486518  0.68597532  0.34830227    -0.76700
O1106       O  0.35048336  0.60769668  0.30712471    -0.78200
O1107       O  0.26906024  0.54108853  0.34773502    -0.80100
O1108       O  0.38408467  0.66137038  0.30717231    -0.76800
O1109       O  0.24605176  0.54441989  0.38057830    -0.79500
O1110       O  0.30581253  0.68675657  0.31046862    -0.75300
O1111       O  0.41942910  0.65421343  0.37883900    -0.75300
O1112       O  0.34203986  0.59323611  0.42490051    -0.74900
O1113       O  0.22989041  0.62571736  0.35511311    -0.78400
O1114       O  0.27988530  0.58335679  0.30703538    -0.77800
O1115       O  0.33481578  0.55834989  0.35179673    -0.76200
Eu1116     Eu  0.28468201  0.65177146  0.34264460     2.39800
Eu1117     Eu  0.36481169  0.62967384  0.39279586     2.39600
Eu1118     Eu  0.37365121  0.68180364  0.34112925     2.38400
Eu1119     Eu  0.27563373  0.59961296  0.39427747     2.39900
Eu1120     Eu  0.31437416  0.59287399  0.33968734     2.39800
O1121       O  0.31487683  0.59126719  0.37953447    -0.90600
O1122       O  0.32375608  0.64273423  0.32819432    -0.89500
C1123       C  0.26334019  0.59489777  0.29939797     1.04600
C1124       C  0.35127793  0.55798220  0.36884218     1.03300
C1125       C  0.33339245  0.70416673  0.30215804     1.02700
C1126       C  0.21358131  0.60607088  0.37102545     1.04700
C1127       C  0.31424873  0.57553946  0.43310194     1.03600
C1128       C  0.43535340  0.67321921  0.36240417     1.02500
C1129       C  0.37304527  0.63373891  0.29874121     1.02500
C1130       C  0.24794236  0.52930985  0.36334422     1.05100
H1131       H  0.37949025  0.62685964  0.34654104     0.32500
O1132       O  0.36421809  0.63146960  0.35274174    -1.02800
H1133       H  0.25454212  0.58603754  0.34854817     0.34600
O1134       O  0.27499913  0.60174847  0.35420371    -1.05300
O1135       O  0.22520221  0.91170283  0.71472484    -0.77900
O1136       O  0.18689154  0.77036295  0.63942840    -0.79400
O1137       O  0.26398414  0.85345126  0.67845118    -0.76400
O1138       O  0.20165584  0.87333812  0.63752389    -0.74800
O1139       O  0.14863405  0.85495793  0.63779832    -0.76600
O1140       O  0.25891855  0.82590845  0.71137306    -0.77600
O1141       O  0.22263918  0.82359732  0.63814920    -0.78900
O1142       O  0.24781015  0.90433031  0.68322972    -0.79200
Eu1143     Eu  0.21326981  0.84924536  0.67027350     2.39200
O1144       O  0.16298392  0.80936851  0.65813951    -0.86700
O1145       O  0.21449005  0.85066007  0.71021979    -0.90300
C1146       C  0.24751433  0.92109214  0.69993612     1.04400
C1147       C  0.21060768  0.79525316  0.63054651     1.04200
C1148       C  0.27470106  0.84291458  0.69408640     1.04200
C1149       C  0.17645651  0.87137173  0.62921349     1.02000
H1150       H  0.21682971  0.79431168  0.67908119     0.31800
O1151       O  0.20161030  0.79946561  0.68457962    -0.99100
H1152       H  0.18024845  0.88129864  0.67758225     0.31800
O1153       O  0.17536091  0.86089812  0.68344857    -1.01600
O1154       O  0.10260132  0.70905908  0.68232143    -0.78800
O1155       O  0.14060417  0.85156223  0.75603515    -0.78400
O1156       O  0.20723931  0.75477104  0.71614470    -0.76800
O1157       O  0.09925709  0.78406226  0.63927820    -0.80200
O1158       O  0.11907441  0.86562108  0.68029129    -0.78000
O1159       O  0.23010352  0.83945728  0.75619141    -0.76700
O1160       O  0.12805088  0.74878936  0.75851949    -0.78200
O1161       O  0.06484275  0.76847787  0.71760986    -0.80100
O1162       O  0.18111926  0.76733524  0.75794059    -0.76800
O1163       O  0.07026368  0.79663658  0.68492591    -0.79500
O1164       O  0.17545261  0.72930984  0.68553715    -0.75300
O1165       O  0.21212691  0.87418176  0.75603161    -0.75300
O1166       O  0.15046260  0.89083387  0.71108838    -0.74900
O1167       O  0.11649214  0.74873783  0.63951675    -0.78400
O1168       O  0.08115538  0.71633980  0.71453416    -0.77800
O1169       O  0.10490240  0.79836219  0.75748507    -0.76200
Eu1170     Eu  0.15131946  0.75964008  0.67234565     2.39800
Eu1171     Eu  0.17633093  0.86169016  0.72362593     2.39600
Eu1172     Eu  0.20391852  0.80164309  0.72460951     2.38400
Eu1173     Eu  0.12496123  0.82060611  0.67127732     2.39900
Eu1174     Eu  0.11524089  0.77228192  0.72593423     2.39800
O1175       O  0.12658570  0.82165690  0.71126443    -0.90600
O1176       O  0.15348764  0.76141679  0.71246774    -0.89500
C1177       C  0.08100341  0.69935188  0.69781193     1.04600
C1178       C  0.11674289  0.82684547  0.76483700     1.03300
C1179       C  0.19453486  0.73209432  0.70165918     1.02700
C1180       C  0.10038887  0.76038922  0.63112882     1.04700
C1181       C  0.13090561  0.88771153  0.69521561     1.03600
C1182       C  0.22892140  0.86321257  0.76423944     1.02500
C1183       C  0.15341514  0.75086612  0.76661490     1.02500
C1184       C  0.05439373  0.77944526  0.70210659     1.05100
H1185       H  0.16604050  0.81293551  0.75456573     0.32500
O1186       O  0.16548004  0.81230936  0.73813827    -1.02800
H1187       H  0.09278286  0.75579181  0.68060471     0.34600
O1188       O  0.11359060  0.77129449  0.68580378    -1.05300
O1189       O  0.19080397  0.78148367  0.13906742    -0.77900
O1190       O  0.05519570  0.74474169  0.21765351    -0.79400
O1191       O  0.11247022  0.70635425  0.17866324    -0.76400
O1192       O  0.09182410  0.77083961  0.13954592    -0.74800
O1193       O  0.11142339  0.82429572  0.13965726    -0.76600
O1194       O  0.14332743  0.71140862  0.20949818    -0.77600
O1195       O  0.06038134  0.72343899  0.18462019    -0.78900
O1196       O  0.13735203  0.74724957  0.13872763    -0.79200
Eu1197     Eu  0.11528721  0.75717516  0.17194963     2.39200
O1198       O  0.10529697  0.79569991  0.18606756    -0.86700
O1199       O  0.16530844  0.76667722  0.18388494    -0.90300
C1200       C  0.16511258  0.75873802  0.13052701     1.04400
C1201       C  0.04459986  0.72328548  0.20208625     1.04200
C1202       C  0.12500573  0.69577774  0.19284843     1.04200
C1203       C  0.09464454  0.79653211  0.13110596     1.02000
H1204       H  0.10128621  0.73438530  0.21716206     0.31800
O1205       O  0.11663218  0.75528279  0.21184728    -0.99100
H1206       H  0.15507396  0.80822800  0.14312129     0.31800
O1207       O  0.15510766  0.80751471  0.15954413    -1.01600
O1208       O  0.11853817  0.82974727  0.25876191    -0.78800
O1209       O  0.25590766  0.86434504  0.18011708    -0.78400
O1210       O  0.13037947  0.73968216  0.25651233    -0.76800
O1211       O  0.09495618  0.84532529  0.18208467    -0.80200
O1212       O  0.18240274  0.87264271  0.14117216    -0.78000
O1213       O  0.21601955  0.76523698  0.21543756    -0.76700
O1214       O  0.21823605  0.83929819  0.25816913    -0.78200
O1215       O  0.20022867  0.90600848  0.21818764    -0.80100
O1216       O  0.19923989  0.78594540  0.25715974    -0.76800
O1217       O  0.16960066  0.90095204  0.18714026    -0.79500
O1218       O  0.09643984  0.75852672  0.25841654    -0.75300
O1219       O  0.23861124  0.79560499  0.18364832    -0.75300
O1220       O  0.21666249  0.85414387  0.14008376    -0.74900
O1221       O  0.07181689  0.81419024  0.21351684    -0.78400
O1222       O  0.17186569  0.86457841  0.25920297    -0.77800
O1223       O  0.25080190  0.88693771  0.21251810    -0.76200
Eu1224     Eu  0.10592529  0.79359798  0.22604120     2.39800
Eu1225     Eu  0.20486057  0.81723934  0.17180223     2.39600
Eu1226     Eu  0.16650497  0.76542161  0.22382234     2.38400
Eu1227     Eu  0.14485407  0.84617098  0.17333048     2.39900
Eu1228     Eu  0.19544280  0.85455787  0.22605142     2.39800
O1229       O  0.19433342  0.85561040  0.18604214    -0.90600
O1230       O  0.15600011  0.80385758  0.23792921    -0.89500
C1231       C  0.14387912  0.85310558  0.26731293     1.04600
C1232       C  0.26671429  0.88600747  0.19540115     1.03300
C1233       C  0.10758969  0.74146168  0.26572183     1.02700
C1234       C  0.07238572  0.83176398  0.19684227     1.04700
C1235       C  0.20583624  0.87139460  0.13250129     1.03600
C1236       C  0.23839042  0.77841379  0.20050463     1.02500
C1237       C  0.21577651  0.81340634  0.26594285     1.02500
C1238       C  0.18826361  0.91678326  0.20365918     1.05100
H1239       H  0.22622040  0.82150973  0.21720336     0.32500
O1240       O  0.20565721  0.81630597  0.21175137    -1.02800
H1241       H  0.14049034  0.85938794  0.21940944     0.34600
O1242       O  0.14527829  0.84410635  0.21342700    -1.05300
O1243       O  0.46482857  0.50294679  0.59255099    -0.77900
O1244       O  0.09737153  0.52916977  0.51425007    -0.79400
O1245       O  0.06132973  0.51028839  0.59114972    -0.76400
O1246       O  0.04511071  0.57616988  0.55137644    -0.74800
O1247       O  0.01475219  0.57188082  0.52047874    -0.76600
O1248       O  0.04346438  0.96078801  0.59136462    -0.77600
O1249       O  0.09318702  0.55240102  0.54663491    -0.78900
O1250       O  0.01851995  0.53597775  0.59214875    -0.79200
Eu1251     Eu  0.03841056  0.52358458  0.55887056     2.39200
O1252       O  0.03818792  0.52516249  0.51899170    -0.86700
O1253       O  0.50052733  0.97746239  0.57119223    -0.90300
C1254       C  0.49102777  0.52568157  0.60059580     1.04400
C1255       C  0.10871478  0.55030417  0.52993701     1.04200
C1256       C  0.06083924  0.98883194  0.59941701     1.04200
C1257       C  0.03351046  0.58746139  0.53693916     1.02000
H1258       H  0.06621046  0.48732689  0.55039684     0.31800
O1259       O  0.04867545  0.98645590  0.54462882    -0.99100
H1260       H  0.48532227  0.53161177  0.55339728     0.31800
O1261       O  0.48913755  0.51564092  0.54745259    -1.01600
O1262       O  0.03420908  0.94947412  0.47260191    -0.78800
O1263       O  0.39911643  0.92132413  0.55149068    -0.78400
O1264       O  0.05407049  0.93161391  0.54925349    -0.76800
O1265       O  0.02333281  0.54068789  0.47470716    -0.80200
O1266       O  0.44242604  0.52085624  0.51658192    -0.78000
O1267       O  0.47235835  0.91274610  0.59104150    -0.76700
O1268       O  0.45336587  0.87667550  0.51318659    -0.78200
O1269       O  0.43252310  0.94302935  0.47529616    -0.80100
O1270       O  0.48353049  0.88190701  0.54452758    -0.76800
O1271       O  0.45476961  0.99690322  0.47461528    -0.79500
O1272       O  0.07712265  0.96037636  0.51683935    -0.75300
O1273       O  0.43962627  0.93304913  0.59196245    -0.75300
O1274       O  0.41963206  0.99112909  0.54489279    -0.74900
O1275       O  0.05593883  0.52028491  0.47279799    -0.78400
O1276       O  0.48043311  0.91649584  0.47228591    -0.77800
O1277       O  0.40306951  0.89726955  0.51946277    -0.76200
Eu1278     Eu  0.04771929  0.98618109  0.50453927     2.39800
Eu1279     Eu  0.45105247  0.96814497  0.55909320     2.39600
Eu1280     Eu  0.00852981  0.93693456  0.55835767     2.38400
Eu1281     Eu  0.48885426  0.51686866  0.50766560     2.39900
Eu1282     Eu  0.45800021  0.92812067  0.50553426     2.39800
O1283       O  0.45112191  0.96879166  0.51923914    -0.90600
O1284       O  0.00734322  0.93723162  0.51833820    -0.89500
C1285       C  0.00841012  0.92682103  0.46418222     1.04600
C1286       C  0.38771534  0.89914089  0.53654151     1.03300
C1287       C  0.07541555  0.94252817  0.53367988     1.02700
C1288       C  0.04524936  0.53776019  0.46539548     1.04700
C1289       C  0.42004940  0.50841124  0.53134721     1.03600
C1290       C  0.44990001  0.91544855  0.59980949     1.02500
C1291       C  0.46531097  0.86598973  0.52780257     1.02500
C1292       C  0.43552844  0.96905744  0.46735563     1.05100
H1293       H  0.44352117  0.90740258  0.55137767     0.32500
O1294       O  0.45935672  0.92785306  0.54565735    -1.02800
H1295       H  0.49784942  0.97750274  0.47555821     0.34600
O1296       O  0.49846862  0.97744266  0.49198723    -1.05300
C1297       C  0.01297867  0.55901637  0.94168317    -0.11000
C1298       C  0.01313200  0.57350214  0.92498317    -0.12600
C1299       C  0.45559876  0.60374725  0.87386225    -0.11000
C1300       C  0.43223654  0.60496751  0.86970498    -0.12600
C1301       C  0.15100998  0.73378411  0.78712419    -0.11000
C1302       C  0.15100538  0.72037507  0.80438646    -0.12600
C1303       C  0.22970421  0.68669558  0.86010519    -0.11000
C1304       C  0.20732177  0.68970840  0.85632349    -0.12600
C1305       C  0.09636874  0.65168742  0.86920145    -0.14200
C1306       C  0.06829852  0.64764211  0.86288276    -0.29400
H1307       H  0.09808687  0.63953710  0.88417662     0.14800
H1308       H  0.06656032  0.65979179  0.84791589     0.15400
C1309       C  0.07836779  0.79457707  0.11023430    -0.11000
C1310       C  0.06600839  0.79531666  0.09261421    -0.12600
C1311       C  0.03294595  0.87512083  0.03646523    -0.11000
C1312       C  0.03676486  0.85327697  0.04065028    -0.12600
C1313       C  0.46000461  0.58166319  0.02434770    -0.11000
C1314       C  0.45715263  0.60400786  0.01980584    -0.12600
C1315       C  0.42661199  0.66072820  0.96766548    -0.11000
C1316       C  0.41229043  0.66036730  0.95081938    -0.12600
C1317       C  0.49602957  0.71500393  0.03218513    -0.14200
C1318       C  0.00065391  0.74330211  0.02599987    -0.29400
H1319       H  0.50669894  0.71255726  0.04770727     0.14800
H1320       H  0.98994754  0.74577414  0.01050625     0.15400
C1321       C  0.02208402  0.83762478  0.18939014    -0.11000
C1322       C  0.04502991  0.83537837  0.19385322    -0.12600
C1323       C  0.48487382  0.88228081  0.13209223    -0.11000
C1324       C  0.48513774  0.89708221  0.11574356    -0.12600
C1325       C  0.33333689  0.73609207  0.26627614    -0.11000
C1326       C  0.33472470  0.72231711  0.28276729    -0.12600
C1327       C  0.28988822  0.77464041  0.20856235    -0.11000
C1328       C  0.26619398  0.77549135  0.20379548    -0.12600
C1329       C  0.41291169  0.82024015  0.19055669    -0.14200
C1330       C  0.40117559  0.79752166  0.20624700    -0.29400
H1331       H  0.39809285  0.82876694  0.18366401     0.14800
H1332       H  0.41618482  0.78919375  0.21309975     0.15400
C1333       C  0.17935206  0.88876994  0.60868211    -0.11000
C1334       C  0.17995776  0.90255751  0.59141318    -0.12600
C1335       C  0.12280909  0.93292401  0.54001758    -0.11000
C1336       C  0.10036526  0.93580101  0.53616650    -0.12600
C1337       C  0.31216771  0.55677548  0.45262185    -0.11000
C1338       C  0.31320150  0.54258909  0.46915721    -0.12600
C1339       C  0.37134905  0.51545623  0.52288217    -0.11000
C1340       C  0.39426113  0.51386411  0.52802152    -0.12600
C1341       C  0.26065990  0.97219345  0.52995194    -0.14200
C1342       C  0.23249451  0.96847490  0.52451528    -0.29400
H1343       H  0.26300069  0.96049740  0.54496646     0.14800
H1344       H  0.23017159  0.98019687  0.50950897     0.15400
C1345       C  0.11847667  0.93324702  0.68963537    -0.11000
C1346       C  0.12270664  0.91159462  0.69320010    -0.12600
C1347       C  0.09068799  0.99176409  0.63762699    -0.11000
C1348       C  0.07772925  0.99151305  0.62007870    -0.12600
C1349       C  0.20095182  0.70703844  0.70452795    -0.11000
C1350       C  0.20345464  0.68446759  0.70879170    -0.12600
C1351       C  0.23322830  0.62758482  0.76081644    -0.11000
C1352       C  0.24787818  0.62899741  0.77774824    -0.12600
C1353       C  0.15620724  0.54420739  0.70353720    -0.14200
C1354       C  0.16122357  0.57267477  0.69727737    -0.29400
H1355       H  0.16748271  0.54188492  0.71876761     0.14800
H1356       H  0.14994792  0.57502927  0.68205981     0.15400
C1357       C  0.35500289  0.50647643  0.37695074    -0.11000
C1358       C  0.35397349  0.53004322  0.37199182    -0.12600
C1359       C  0.41608552  0.96763476  0.44885624    -0.11000
C1360       C  0.40097406  0.96802826  0.43291898    -0.12600
C1361       C  0.29377324  0.75099189  0.36308388    -0.11000
C1362       C  0.29205525  0.77425170  0.35812918    -0.12600
C1363       C  0.24707661  0.81408186  0.30246177    -0.11000
C1364       C  0.23287605  0.81458942  0.28594097    -0.12600
C1365       C  0.31652544  0.88632128  0.35784298    -0.14200
C1366       C  0.33604603  0.89639951  0.37554274    -0.29400
H1367       H  0.31143763  0.90281829  0.34915161     0.14800
H1368       H  0.34105683  0.87991299  0.38433293     0.15400
C1369       C  0.41396888  0.99135355  0.13605950    -0.11000
C1370       C  0.42860118  0.99122800  0.11953615    -0.12600
C1371       C  0.29863235  0.91183995  0.19219869    -0.11000
C1372       C  0.32413293  0.93428945  0.18724794    -0.12600
C1373       C  0.40104995  0.63131946  0.26185295    -0.11000
C1374       C  0.38763885  0.63213694  0.27848650    -0.12600
C1375       C  0.48798438  0.67315275  0.20922942    -0.11000
C1376       C  0.01334303  0.69619661  0.20509455    -0.12600
C1377       C  0.41510494  0.55289429  0.19017276    -0.14200
C1378       C  0.40226266  0.56109829  0.20660460    -0.29400
H1379       H  0.43763360  0.57055481  0.18302615     0.14800
H1380       H  0.37965449  0.54353671  0.21369629     0.15400
C1381       C  0.46657710  0.67890751  0.35851288    -0.11000
C1382       C  0.49115343  0.68048518  0.35387136    -0.12600
C1383       C  0.09290403  0.72301764  0.28578101    -0.11000
C1384       C  0.07851548  0.70891447  0.30258515    -0.12600
C1385       C  0.05851763  0.55480632  0.44476991    -0.11000
C1386       C  0.07046464  0.56792410  0.42717060    -0.12600
C1387       C  0.15625221  0.59597164  0.37588881    -0.11000
C1388       C  0.18160993  0.59855416  0.37313743    -0.12600
C1389       C  0.06112768  0.63947371  0.36742912    -0.14200
C1390       C  0.08515392  0.63544718  0.36155885    -0.29400
H1391       H  0.04727425  0.62783731  0.38251756     0.14800
H1392       H  0.09899129  0.64708795  0.34646567     0.15400
C1393       C  0.32582479  0.93558212  0.04555183    -0.11000
C1394       C  0.35091535  0.93820661  0.04082468    -0.12600
C1395       C  0.22148140  0.89042531  0.11264008    -0.11000
C1396       C  0.23639666  0.90492493  0.09598112    -0.12600
C1397       C  0.26860781  0.56912177  0.95478280    -0.08000
C1398       C  0.25580261  0.55597478  0.97230584    -0.12600
C1399       C  0.14119878  0.52015536  0.02526534    -0.11000
C1400       C  0.16707629  0.52394336  0.02238874    -0.12600
C1401       C  0.23132571  0.97996546  0.03633255    -0.14200
C1402       C  0.25583598  0.97627746  0.03139481    -0.29400
H1403       H  0.21637105  0.96753815  0.05080834     0.14800
H1404       H  0.27070582  0.98862758  0.01686235     0.15400
C1405       C  0.22537614  0.79162998  0.61061030    -0.11000
C1406       C  0.23986499  0.79159844  0.59406708    -0.12600
C1407       C  0.35590562  0.87352953  0.54006160    -0.11000
C1408       C  0.33050492  0.85071513  0.54449767    -0.12600
C1409       C  0.16625875  0.59777699  0.52515455    -0.11000
C1410       C  0.14087210  0.57466894  0.52807017    -0.12600
C1411       C  0.26270160  0.65443301  0.45580624    -0.11000
C1412       C  0.25087966  0.65652621  0.47301377    -0.12600
C1413       C  0.25849136  0.73909203  0.53072548    -0.14200
C1414       C  0.23466730  0.71036763  0.53667534    -0.29400
H1415       H  0.27272204  0.74174404  0.51590601     0.14800
H1416       H  0.22058434  0.70769329  0.55159073     0.15400
C1417       C  0.40895742  0.73750740  0.75927588    -0.11000
C1418       C  0.39478486  0.72294922  0.77599082    -0.12600
C1419       C  0.02288283  0.77309126  0.70490594    -0.11000
C1420       C  0.49772418  0.77018370  0.70899559    -0.12600
C1421       C  0.33150289  0.85217359  0.68704303    -0.11000
C1422       C  0.30628311  0.84931708  0.69121488    -0.12600
C1423       C  0.43466154  0.89738933  0.61992200    -0.11000
C1424       C  0.42025753  0.88316660  0.63670076    -0.12600
C1425       C  0.40248854  0.81306167  0.70136187    -0.14200
C1426       C  0.42682946  0.80950913  0.69580554    -0.29400
H1427       H  0.38815047  0.80087087  0.71614766     0.14800
H1428       H  0.44116642  0.82174352  0.68102905     0.15400
C1429       C  0.15886691  0.52433645  0.87215469    -0.11000
C1430       C  0.18489331  0.54688253  0.86976962    -0.12600
C1431       C  0.06745648  0.95876667  0.92573170    -0.11000
C1432       C  0.05364656  0.95940392  0.94248581    -0.12600
C1433       C  0.49792920  0.76902959  0.84973093    -0.11000
C1434       C  0.47287842  0.74595520  0.85410448    -0.12600
C1435       C  0.08779563  0.83187221  0.80097533    -0.11000
C1436       C  0.10192918  0.83104561  0.78449234    -0.12600
C1437       C  0.06518591  0.88047718  0.86546519    -0.14200
C1438       C  0.08883193  0.90978270  0.86082242    -0.29400
H1439       H  0.05019246  0.87639574  0.88010237     0.14800
H1440       H  0.10385727  0.91383180  0.84621022     0.15400
C1441       C  0.23306326  0.56726218  0.26145762    -0.11000
C1442       C  0.24610759  0.58108625  0.27871309    -0.12600
C1443       C  0.19740871  0.97367068  0.21115218    -0.11000
C1444       C  0.19480038  0.94846094  0.20700043    -0.12600
C1445       C  0.08994767  0.55201757  0.13527086    -0.11000
C1446       C  0.07617987  0.53919309  0.11800561    -0.12600
C1447       C  0.11945059  0.66457903  0.18917190    -0.11000
C1448       C  0.11799580  0.63988956  0.18518606    -0.12600
C1449       C  0.16111936  0.57212341  0.19977937    -0.14200
C1450       C  0.16577285  0.54820734  0.19484066    -0.29400
H1451       H  0.17265179  0.58681339  0.21450363     0.14800
H1452       H  0.15430160  0.53351784  0.18010489     0.15400
C1453       C  0.20180038  0.97295887  0.35311120    -0.11000
C1454       C  0.22381590  0.49708411  0.36037141    -0.12600
C1455       C  0.14129755  0.88247206  0.30407618    -0.11000
C1456       C  0.14108637  0.86807076  0.28742531    -0.12600
C1457       C  0.01071862  0.91199325  0.44393736    -0.11000
C1458       C  0.01117623  0.89873025  0.42690003    -0.12600
C1459       C  0.42868550  0.78390244  0.37416295    -0.11000
C1460       C  0.45123530  0.80961366  0.37758849    -0.12600
C1461       C  0.06177448  0.88035632  0.36201043    -0.14200
C1462       C  0.09083417  0.90324233  0.36783981    -0.29400
H1463       H  0.05833978  0.86634380  0.34691358     0.14800
H1464       H  0.09427700  0.91727170  0.38292831     0.15400
C1465       C  0.10652271  0.62025908  0.03553772    -0.11000
C1466       C  0.12929589  0.64586365  0.03985700    -0.12600
C1467       C  0.16711116  0.74470104  0.11013039    -0.11000
C1468       C  0.16792381  0.73174488  0.09324930    -0.12600
C1469       C  0.32282818  0.72540702  0.96812914    -0.11000
C1470       C  0.32350908  0.71235914  0.95125080    -0.12600
C1471       C  0.38553953  0.83336870  0.02839754    -0.11000
C1472       C  0.36252136  0.80793662  0.02420045    -0.12600
C1473       C  0.25076398  0.72109679  0.02388907    -0.14200
C1474       C  0.24086825  0.73324272  0.03968631    -0.29400
H1475       H  0.23408496  0.69852533  0.01630879     0.14800
H1476       H  0.25751389  0.75590901  0.04716288     0.15400
C1477       C  0.06879875  0.73191951  0.59393222    -0.11000
C1478       C  0.08253754  0.74566825  0.61095277    -0.12600
C1479       C  0.04014668  0.61921735  0.54025943    -0.11000
C1480       C  0.04180653  0.64415678  0.54387732    -0.12600
C1481       C  0.45661051  0.80911199  0.51991129    -0.11000
C1482       C  0.45915453  0.83430849  0.52434182    -0.12600
C1483       C  0.42335153  0.71853173  0.47055022    -0.11000
C1484       C  0.40817450  0.70389731  0.45413557    -0.12600
C1485       C  0.49655233  0.73815407  0.53352735    -0.14200
C1486       C  0.00084223  0.71409951  0.52806017    -0.29400
H1487       H  0.50835043  0.75251414  0.54833355     0.14800
H1488       H  0.98920834  0.69979652  0.51320011     0.15400
C1489       C  0.37422413  0.78907875  0.86776165    -0.11000
C1490       C  0.37713793  0.81447066  0.87179975    -0.12600
C1491       C  0.40215228  0.89925843  0.92491272    -0.11000
C1492       C  0.41414334  0.91244851  0.94256149    -0.12600
C1493       C  0.24743357  0.87882635  0.78411069    -0.11000
C1494       C  0.26180922  0.89307873  0.80088076    -0.12600
C1495       C  0.29029809  0.97833131  0.85462060    -0.11000
C1496       C  0.28615877  0.50124891  0.86008638    -0.12600
C1497       C  0.33848268  0.88635432  0.85757605    -0.14200
C1498       C  0.33359497  0.90967185  0.86400848    -0.29400
H1499       H  0.32744072  0.87307206  0.84221220     0.14800
H1500       H  0.34470491  0.92291954  0.87937180     0.15400
C1501       C  0.03092865  0.64190883  0.69126261    -0.11000
C1502       C  0.05381821  0.66764734  0.69545948    -0.12600
C1503       C  0.49014850  0.54165572  0.62041468    -0.11000
C1504       C  0.49061714  0.55613688  0.63687816    -0.12600
C1505       C  0.29763989  0.97725210  0.70861154    -0.11000
C1506       C  0.27488620  0.95218185  0.70322111    -0.12600
C1507       C  0.33529613  0.57351828  0.77934401    -0.11000
C1508       C  0.33584174  0.55950358  0.76300417    -0.12600
C1509       C  0.40905609  0.56460333  0.70811588    -0.14200
C1510       C  0.41995809  0.55217197  0.69334817    -0.29400
H1511       H  0.42483392  0.58814680  0.71468214     0.14800
H1512       H  0.40411694  0.52861269  0.68682433     0.15400
C1513       C  0.82326577  0.00639683  0.71789537     0.82500
N1514       N  0.85289073  0.02022630  0.70896666    -0.75800
C1515       C  0.87672350  0.04729233  0.71838310     0.84900
N1516       N  0.87076290  0.06004085  0.73651028    -0.75800
C1517       C  0.84161943  0.04632041  0.74546473     0.85000
N1518       N  0.81777427  0.01948500  0.73626908    -0.77500
C1519       C  0.50376512  0.11118307  0.68276852     0.82500
N1520       N  0.97457763  0.09679864  0.69247201    -0.75800
C1521       C  0.95106064  0.06865042  0.68408606     0.84900
N1522       N  0.95688430  0.05543999  0.66616146    -0.75800
C1523       C  0.98558445  0.06969990  0.65642852     0.85000
N1524       N  0.50904580  0.09763856  0.66458949    -0.77500
C1525       C  0.78314640  0.44769070  0.84963625     0.82500
N1526       N  0.79995924  0.43828646  0.86234443    -0.75800
C1527       C  0.80176785  0.41277074  0.85611854     0.84900
N1528       N  0.78676537  0.39675751  0.83695386    -0.75800
C1529       C  0.77002705  0.40612814  0.82413733     0.85000
N1530       N  0.76832568  0.43174025  0.83041038    -0.77500
C1531       C  0.86855958  0.33975772  0.88073659     0.82500
N1532       N  0.84907112  0.34719384  0.86954408    -0.75800
C1533       C  0.84631719  0.37193737  0.87643770     0.84900
N1534       N  0.86314930  0.38920449  0.89471310    -0.75800
C1535       C  0.88259044  0.38175286  0.90597749     0.85000
N1536       N  0.88520626  0.35694745  0.89902738    -0.77500
C1537       C  0.95286590  0.27867407  0.51257554     0.82500
N1538       N  0.97110396  0.27064949  0.52492217    -0.75800
C1539       C  0.97388086  0.24559995  0.51883413     0.84900
N1540       N  0.95823535  0.22853068  0.50011484    -0.75800
C1541       C  0.93993386  0.23643842  0.48765844     0.85000
N1542       N  0.93738822  0.26162411  0.49386296    -0.77500
C1543       C  0.54160262  0.17403408  0.54698829     0.82500
N1544       N  0.55673014  0.19088795  0.56581488    -0.75800
C1545       C  0.55387537  0.21580587  0.57213723     0.84900
N1546       N  0.53558039  0.22370119  0.55965496    -0.75800
C1547       C  0.52023977  0.20681231  0.54078341     0.85000
N1548       N  0.52329692  0.18194499  0.53459742    -0.77500
C1549       C  0.84299476  0.28107306  0.01560841     0.82500
N1550       N  0.84158375  0.26432510  0.99702308    -0.75800
C1551       C  0.81370877  0.23934230  0.99036313     0.84900
N1552       N  0.78705665  0.23125680  0.00223237    -0.75800
C1553       C  0.78838931  0.24815800  0.02090104     0.85000
N1554       N  0.81644772  0.27312418  0.02744580    -0.77500
C1555       C  0.64817484  0.17345659  0.04706766     0.82500
N1556       N  0.64915219  0.18974439  0.06593263    -0.75800
C1557       C  0.67679437  0.21532972  0.07262225     0.84900
N1558       N  0.70349078  0.22434590  0.06049403    -0.75800
C1559       C  0.70255090  0.20793312  0.04164554     0.85000
N1560       N  0.67484658  0.18254991  0.03508354    -0.77500
C1561       C  0.98057913  0.33763746  0.38117098     0.82500
N1562       N  0.50751564  0.34481753  0.37040344    -0.75800
C1563       C  0.53548282  0.36897812  0.37757231     0.84900
N1564       N  0.53648475  0.38623209  0.39599797    -0.75800
C1565       C  0.00932261  0.37893948  0.40705872     0.85000
N1566       N  0.98137819  0.35453255  0.39958846    -0.77500
C1567       C  0.64608473  0.39950595  0.32502563     0.82500
N1568       N  0.61957143  0.39023440  0.33756663    -0.75800
C1569       C  0.62075423  0.40713214  0.35626447     0.84900
N1570       N  0.64825288  0.43307913  0.36212488    -0.75800
C1571       C  0.67453834  0.44234313  0.34975867     0.85000
N1572       N  0.67351708  0.42575631  0.33110231    -0.77500
C1573       C  0.61894653  0.11458143  0.17871374     0.82500
N1574       N  0.63595045  0.10572325  0.19178298    -0.75800
C1575       C  0.63777807  0.07997526  0.18612645     0.84900
N1576       N  0.62263504  0.06328176  0.16718884    -0.75800
C1577       C  0.60579599  0.07227848  0.15410102     0.85000
N1578       N  0.60402616  0.09793275  0.15984238    -0.77500
C1579       C  0.71238513  0.04543382  0.24087750     0.82500
N1580       N  0.71363424  0.01939142  0.23516762    -0.75800
C1581       C  0.69753824  0.00215312  0.21671386     0.84900
N1582       N  0.68006052  0.01085458  0.20410652    -0.75800
C1583       C  0.67870465  0.03683719  0.20974118     0.85000
N1584       N  0.69492512  0.05408928  0.22819360    -0.77500
C1585       C  0.52289003  0.30064672  0.84473001     0.82500
N1586       N  0.54038810  0.30139348  0.82670079    -0.75800
C1587       C  0.56567842  0.32925281  0.81983786     0.84900
N1588       N  0.57324769  0.35634522  0.83095517    -0.75800
C1589       C  0.55564422  0.35562172  0.84896239     0.85000
N1590       N  0.53052960  0.32772661  0.85571712    -0.77500
C1591       C  0.63000790  0.49554166  0.87682311     0.82500
N1592       N  0.62130593  0.46958990  0.86394759    -0.75800
C1593       C  0.59546960  0.44152751  0.86960458     0.84900
N1594       N  0.57856331  0.43956697  0.88841714    -0.75800
C1595       C  0.58737598  0.46553920  0.90130360     0.85000
N1596       N  0.61190823  0.98901707  0.90071498    -0.77500
C1597       C  0.89945456  0.36447174  0.65723981     0.82500
N1598       N  0.90733926  0.34587749  0.66925800    -0.75800
C1599       C  0.89020991  0.32946382  0.68775101     0.84900
N1600       N  0.86512801  0.33176551  0.69415861    -0.75800
C1601       C  0.85713722  0.35035612  0.68224732     0.85000
N1602       N  0.87418234  0.36662000  0.66365502    -0.77500
C1603       C  0.96655852  0.26755043  0.71478225     0.82500
N1604       N  0.95017790  0.25160641  0.73366331    -0.75800
C1605       C  0.92391144  0.25214328  0.73971905     0.84900
N1606       N  0.91436185  0.26891043  0.72703097    -0.75800
C1607       C  0.93085102  0.28500076  0.70821414     0.85000
N1608       N  0.95692552  0.28426362  0.70219906    -0.77500
C1609       C  0.69656664  0.12867833  0.51560215     0.82500
N1610       N  0.70433348  0.15520142  0.52732910    -0.75800
C1611       C  0.72872967  0.18350312  0.52054074     0.84900
N1612       N  0.74544711  0.18516928  0.50159200    -0.75800
C1613       C  0.73753767  0.15838500  0.48975494     0.85000
N1614       N  0.71296525  0.13026727  0.49674732    -0.77500
C1615       C  0.79893099  0.32309454  0.54939213     0.82500
N1616       N  0.78146107  0.32084104  0.56790913    -0.75800
C1617       C  0.75578283  0.29258280  0.57369358     0.84900
N1618       N  0.74796534  0.26654386  0.56099162    -0.75800
C1619       C  0.76560834  0.26880956  0.54247350     0.85000
N1620       N  0.79097640  0.29711590  0.53686219    -0.77500
C1621       C  0.68980220  0.02039152  0.01539087     0.82500
N1622       N  0.70663621  0.51015478  0.03095980    -0.75800
C1623       C  0.73328823  0.51000713  0.02559791     0.84900
N1624       N  0.74164987  0.01746077  0.00459301    -0.75800
C1625       C  0.73375142  0.03561623  0.99195401     0.85000
N1626       N  0.70776407  0.03695261  0.99730358    -0.77500
C1627       C  0.80746590  0.44482084  0.05141911     0.82500
N1628       N  0.80017121  0.46459179  0.04040159    -0.75800
C1629       C  0.77575385  0.46763544  0.04754460     0.84900
N1630       N  0.75857402  0.45070906  0.06591402    -0.75800
C1631       C  0.76586313  0.43096847  0.07705804     0.85000
N1632       N  0.79035187  0.42804916  0.06980641    -0.77500
C1633       C  0.63191490  0.09925364  0.37916844     0.82500
N1634       N  0.61592657  0.08397477  0.39825878    -0.75800
C1635       C  0.58995558  0.08483208  0.40445829     0.84900
N1636       N  0.58011431  0.10129811  0.39161416    -0.75800
C1637       C  0.59621882  0.11677032  0.37245218     0.85000
N1638       N  0.62216033  0.11573012  0.36638383    -0.77500
C1639       C  0.52150883  0.18095186  0.34486757     0.82500
N1640       N  0.52943317  0.16230414  0.35679126    -0.75800
C1641       C  0.55441312  0.15980218  0.35033200     0.84900
N1642       N  0.57144053  0.17607813  0.33169440    -0.75800
C1643       C  0.56344140  0.19467337  0.31967205     0.85000
N1644       N  0.53840334  0.19701445  0.32624816    -0.77500
C1645       C  0.91949734  0.13078833  0.23495228     0.82500
N1646       N  0.91054746  0.10402096  0.22292268    -0.75800
C1647       C  0.92714851  0.10479494  0.20423390     0.84900
N1648       N  0.95281635  0.13251052  0.19776233    -0.75800
C1649       C  0.96190115  0.15932265  0.20967057     0.85000
N1650       N  0.94534410  0.15841057  0.22837828    -0.77500
C1651       C  0.90083451  0.48847334  0.15194307     0.82500
N1652       N  0.90407603  0.01808156  0.16692549    -0.75800
C1653       C  0.88683454  0.01784705  0.18504242     0.84900
N1654       N  0.87269553  0.49573443  0.18904019    -0.75800
C1655       C  0.85965520  0.46692438  0.17877275     0.85000
N1656       N  0.87376891  0.46345382  0.16007498    -0.77500
C1657       C  0.76785676  0.31893348  0.32094536     0.82500
N1658       N  0.77196555  0.29558201  0.32941242    -0.75800
C1659       C  0.78873508  0.30018687  0.34887102     0.84900
N1660       N  0.80167244  0.32875825  0.35973247    -0.75800
C1661       C  0.79720971  0.35216109  0.35092618     0.85000
N1662       N  0.78035863  0.34680815  0.33166258    -0.77500
C1663       C  0.85753642  0.48038358  0.38656490     0.82500
N1664       N  0.84154067  0.45050846  0.37765823    -0.75800
C1665       C  0.84453268  0.42679222  0.38758782     0.84900
N1666       N  0.86315905  0.43319180  0.40600126    -0.75800
C1667       C  0.87887004  0.46245075  0.41476042     0.85000
N1668       N  0.87948505  0.98733395  0.40372358    -0.77500
C1669       C  0.69951916  0.15418956  0.71806240     0.82500
N1670       N  0.68176772  0.12748640  0.70602565    -0.75800
C1671       C  0.68017630  0.10017075  0.71232579     0.84900
N1672       N  0.69656033  0.09966141  0.73089101    -0.75800
C1673       C  0.71437446  0.12646195  0.74300719     0.85000
N1674       N  0.71572819  0.15371214  0.73663533    -0.77500
C1675       C  0.61780991  0.46148016  0.68451740     0.82500
N1676       N  0.63464885  0.48811749  0.69684681    -0.75800
C1677       C  0.63649750  0.01496363  0.69069660     0.84900
N1678       N  0.62209032  0.01641400  0.67127173    -0.75800
C1679       C  0.60428187  0.48910422  0.65851797     0.85000
N1680       N  0.60284704  0.46201786  0.66528737    -0.77500
C1681       C  0.84369663  0.01346392  0.51116443     0.82500
N1682       N  0.84290989  0.02958733  0.49246943    -0.75800
C1683       C  0.81529278  0.02714809  0.48579474     0.84900
N1684       N  0.78857589  0.00850699  0.49778779    -0.75800
C1685       C  0.78926706  0.99227598  0.51643602     0.85000
N1686       N  0.81687978  0.99485033  0.52301079    -0.77500
C1687       C  0.64811832  0.42995960  0.54584886     0.82500
N1688       N  0.67480401  0.44727092  0.53351481    -0.75800
C1689       C  0.70206761  0.44900093  0.54007901     0.84900
N1690       N  0.70253903  0.43344024  0.55914693    -0.75800
C1691       C  0.67599694  0.41622094  0.57154961     0.85000
N1692       N  0.64876097  0.41456911  0.56497719    -0.77500
C1693       C  0.81384768  0.26675406  0.21200681     0.82500
N1694       N  0.84022641  0.28379261  0.19930077    -0.75800
C1695       C  0.86767127  0.28558518  0.20546018     0.84900
N1696       N  0.86857261  0.27022678  0.22461544    -0.75800
C1697       C  0.84222727  0.25320874  0.23743087     0.85000
N1698       N  0.81492280  0.25161272  0.23112965    -0.77500
C1699       C  0.50805979  0.35019909  0.17906808     0.82500
N1700       N  0.98089812  0.33149092  0.19052513    -0.75800
C1701       C  0.95339559  0.32886813  0.18349960     0.84900
N1702       N  0.95311717  0.34487069  0.16452003    -0.75800
C1703       C  0.98020436  0.36332015  0.15274984     0.85000
N1704       N  0.50767208  0.36597862  0.16011643    -0.77500
C1705       C  0.95562195  0.13232308  0.01457572     0.82500
N1706       N  0.97574659  0.15933105  0.02567645    -0.75800
C1707       C  0.97956368  0.18738584  0.01856990     0.84900
N1708       N  0.96311132  0.18826432  0.00019301    -0.75800
C1709       C  0.94303040  0.16130845  0.98902519     0.85000
N1710       N  0.93938136  0.13331678  0.99616832    -0.77500
C1711       C  0.54431807  0.32786842  0.04234556     0.82500
N1712       N  0.55962230  0.32793490  0.06162845    -0.75800
C1713       C  0.55858809  0.30107816  0.06870952     0.84900
N1714       N  0.54179939  0.27401437  0.05661871    -0.75800
C1715       C  0.52632142  0.27393472  0.03732325     0.85000
N1716       N  0.52761066  0.30090048  0.03035041    -0.77500
C1717       C  0.67555284  0.18732711  0.85030334     0.82500
N1718       N  0.67505461  0.20380455  0.83178441    -0.75800
C1719       C  0.64780138  0.20226701  0.82540922     0.84900
N1720       N  0.62104100  0.18399663  0.83741761    -0.75800
C1721       C  0.62139332  0.16736281  0.85591760     0.85000
N1722       N  0.64871035  0.16905020  0.86224230    -0.77500
C1723       C  0.98062961  0.10168058  0.88002158     0.82500
N1724       N  0.98059601  0.08523941  0.89864740    -0.75800
C1725       C  0.00761140  0.08688909  0.90561923     0.84900
N1726       N  0.53483714  0.10525746  0.89401097    -0.75800
C1727       C  0.53497689  0.12197929  0.87538202     0.85000
N1728       N  0.50778964  0.12013809  0.86848733    -0.77500
O1729       O  0.86086820  0.11409057  0.80846554    -0.77900
O1730       O  0.72757292  0.08956062  0.88562983    -0.79400
O1731       O  0.78397429  0.04396555  0.84942509    -0.76400
O1732       O  0.76237984  0.10601406  0.80862034    -0.74800
O1733       O  0.78263517  0.15953950  0.80674646    -0.76600
O1734       O  0.81498771  0.05032387  0.88046101    -0.77600
O1735       O  0.73172915  0.06473536  0.85420846    -0.78900
O1736       O  0.80735982  0.08039924  0.80902825    -0.79200
Eu1737     Eu  0.78680852  0.09443552  0.84117139     2.39200
O1738       O  0.77885458  0.13499376  0.85330998    -0.86700
O1739       O  0.83647431  0.10460761  0.85375087    -0.90300
C1740       C  0.83493079  0.09059087  0.80082741     1.04400
C1741       C  0.71618461  0.06737786  0.87076026     1.04200
C1742       C  0.79678608  0.03400339  0.86386053     1.04200
C1743       C  0.76483733  0.13113240  0.79948055     1.02000
H1744       H  0.77265958  0.07438383  0.88701418     0.31800
O1745       O  0.78850065  0.09473556  0.88113018    -0.99100
H1746       H  0.82627091  0.14271160  0.80993669     0.31800
O1747       O  0.82674331  0.14329670  0.82636294    -1.01600
O1748       O  0.79189956  0.17140743  0.92514791    -0.78800
O1749       O  0.92746576  0.20058113  0.84623968    -0.78400
O1750       O  0.80340978  0.08210349  0.92665736    -0.76800
O1751       O  0.77286597  0.18868009  0.84750011    -0.80200
O1752       O  0.85537656  0.20766231  0.80612056    -0.78000
O1753       O  0.88408459  0.10037010  0.88391396    -0.76700
O1754       O  0.89416657  0.18374000  0.92453861    -0.78200
O1755       O  0.87364032  0.24589817  0.88281059    -0.80100
O1756       O  0.87501356  0.13035831  0.92556843    -0.76800
O1757       O  0.84434871  0.23969560  0.85073495    -0.79500
O1758       O  0.76941781  0.10094409  0.92665971    -0.75300
O1759       O  0.90642846  0.12860004  0.85120142    -0.75300
O1760       O  0.88807694  0.18734998  0.80576382    -0.74900
O1761       O  0.74943622  0.15956263  0.87971153    -0.78400
O1762       O  0.84523518  0.20596138  0.92517756    -0.77800
O1763       O  0.92326921  0.22574434  0.87752284    -0.76200
Eu1764     Eu  0.77976757  0.13521421  0.89325955     2.39800
Eu1765     Eu  0.87611220  0.15321691  0.83925202     2.39600
Eu1766     Eu  0.83852198  0.10548959  0.89360602     2.38400
Eu1767     Eu  0.81891556  0.18404817  0.83886380     2.39900
Eu1768     Eu  0.86883753  0.19486251  0.89224170     2.39800
O1769       O  0.86792234  0.19364267  0.85215343    -0.90600
O1770       O  0.82933747  0.14543008  0.90609523    -0.89500
C1771       C  0.81729427  0.19471123  0.93341831     1.04600
C1772       C  0.93858106  0.22340947  0.86061719     1.03300
C1773       C  0.78056968  0.08436766  0.93510313     1.02700
C1774       C  0.75115608  0.17734416  0.86280677     1.04700
C1775       C  0.87785877  0.20480438  0.79754094     1.03600
C1776       C  0.90505162  0.11102310  0.86806954     1.02500
C1777       C  0.89234314  0.15862768  0.93320105     1.02500
C1778       C  0.86228113  0.25611508  0.86737496     1.05100
H1779       H  0.89850907  0.15989023  0.88453079     0.32500
O1780       O  0.87791785  0.15500881  0.87935162    -1.02800
H1781       H  0.81478565  0.20022440  0.88440038     0.34600
O1782       O  0.81922668  0.18441228  0.87903816    -1.05300
O1783       O  0.93251863  0.45231711  0.97041021    -0.77900
O1784       O  0.54215159  0.42247604  0.04540608    -0.79400
O1785       O  0.52147985  0.44121440  0.96844465    -0.76400
O1786       O  0.94157935  0.37704857  0.01106109    -0.74800
O1787       O  0.91840887  0.38243156  0.04302752    -0.76600
O1788       O  0.55715121  0.49443504  0.96866682    -0.77600
O1789       O  0.51263732  0.39922718  0.01344348    -0.78900
O1790       O  0.95113439  0.41812840  0.96934278    -0.79200
Eu1791     Eu  0.98707064  0.42899319  0.00161233     2.39200
O1792       O  0.98789666  0.42817032  0.04162931    -0.86700
O1793       O  0.99761476  0.47889024  0.98894584    -0.90300
C1794       C  0.93407386  0.42914626  0.96169844     1.04400
C1795       C  0.53100686  0.40116832  0.02987989     1.04200
C1796       C  0.54485215  0.46659763  0.96003304     1.04200
C1797       C  0.92017011  0.36630208  0.02657586     1.02000
H1798       H  0.55240980  0.46361637  0.00947970     0.31800
O1799       O  0.53675617  0.46805439  0.01515019    -0.99100
H1800       H  0.92698920  0.42252005  0.00977028     0.31800
O1801       O  0.94761021  0.43829664  0.01512351    -1.01600
O1802       O  0.56100057  0.50280722  0.08841234    -0.78800
O1803       O  0.94822187  0.03214910  0.01388863    -0.78400
O1804       O  0.59336023  0.02236731  0.01070317    -0.76800
O1805       O  0.96028837  0.41219177  0.08719033    -0.80200
O1806       O  0.89846490  0.43458718  0.04809731    -0.78000
O1807       O  0.52839121  0.03985048  0.97091065    -0.76700
O1808       O  0.54974974  0.07744587  0.04828207    -0.78200
O1809       O  0.96712795  0.01392478  0.09066140    -0.80100
O1810       O  0.57267164  0.07189006  0.01615312    -0.76800
O1811       O  0.93655472  0.45872161  0.08766641    -0.79500
O1812       O  0.59272484  0.49432119  0.04370017    -0.75300
O1813       O  0.97518952  0.02077262  0.97162305    -0.75300
O1814       O  0.90431857  0.46574616  0.01713836    -0.74900
O1815       O  0.51337246  0.43104539  0.08764968    -0.78400
O1816       O  0.54013155  0.03821451  0.08957385    -0.77800
O1817       O  0.97857135  0.05637256  0.04534647    -0.76200
Eu1818     Eu  0.53718594  0.46784831  0.05534281     2.39800
Eu1819     Eu  0.95855528  0.48843944  0.00262981     2.39600
Eu1820     Eu  0.54146330  0.01638500  0.00309171     2.38400
Eu1821     Eu  0.94892428  0.43755945  0.05509209     2.39900
Eu1822     Eu  0.50339440  0.02624557  0.05769819     2.39800
O1823       O  0.95944103  0.48756935  0.04252457    -0.90600
O1824       O  0.54297057  0.01775011  0.04309914    -0.89500
C1825       C  0.55765685  0.02760297  0.09695182     1.04600
C1826       C  0.96020779  0.05425667  0.02887071     1.03300
C1827       C  0.60437709  0.01158943  0.02599240     1.02700
C1828       C  0.98526924  0.41379740  0.09560864     1.04700
C1829       C  0.88842003  0.44763663  0.03396231     1.03600
C1830       C  0.50294338  0.03755015  0.96288882     1.02500
C1831       C  0.57137604  0.08802748  0.03294343     1.02500
C1832       C  0.94711118  0.48638569  0.09586750     1.05100
H1833       H  0.50690527  0.04590642  0.01176450     0.32500
O1834       O  0.50237440  0.02554052  0.01743532    -1.02800
H1835       H  0.99790869  0.47667977  0.08524159     0.34600
O1836       O  0.99809632  0.47731257  0.06881248    -1.05300
O1837       O  0.89283054  0.16681694  0.42154268    -0.77900
O1838       O  0.78725391  0.20257185  0.34712236    -0.79400
O1839       O  0.88434381  0.24196177  0.38128531    -0.76400
O1840       O  0.80338761  0.17880826  0.42301141    -0.74800
O1841       O  0.76851333  0.12542921  0.42367808    -0.76600
O1842       O  0.90722816  0.23744725  0.34879086    -0.77600
O1843       O  0.81680126  0.22417828  0.37927297    -0.78900
O1844       O  0.87505039  0.20169587  0.42245829    -0.79200
Eu1845     Eu  0.83882875  0.19073297  0.39040031     2.39200
O1846       O  0.78874544  0.15196827  0.37748933    -0.86700
O1847       O  0.87744586  0.18067875  0.37606585    -0.90300
C1848       C  0.89162708  0.19022812  0.43027623     1.04400
C1849       C  0.79963298  0.22420967  0.36261730     1.04200
C1850       C  0.90551871  0.25311954  0.36570853     1.04200
C1851       C  0.78019997  0.15357873  0.43175980     1.02000
H1852       H  0.84381903  0.21289200  0.34498689     0.31800
O1853       O  0.83869438  0.19220518  0.35032850    -0.99100
H1854       H  0.82911680  0.14052114  0.41953279     0.31800
O1855       O  0.82878411  0.14090265  0.40310236    -1.01600
O1856       O  0.76248897  0.11729544  0.30508336    -0.78800
O1857       O  0.86695925  0.08106802  0.38077751    -0.78400
O1858       O  0.86452807  0.20648973  0.30351505    -0.76800
O1859       O  0.72790017  0.09772248  0.38179205    -0.80200
O1860       O  0.79114070  0.07596869  0.42171673    -0.78000
O1861       O  0.92779594  0.18650607  0.34426591    -0.76700
O1862       O  0.85224013  0.10605963  0.30222138    -0.78200
O1863       O  0.77060939  0.04172623  0.34432340    -0.80100
O1864       O  0.88675309  0.15952499  0.30197189    -0.76800
O1865       O  0.74788082  0.04657526  0.37680420    -0.79500
O1866       O  0.81159846  0.18857220  0.30395743    -0.75300
O1867       O  0.92213012  0.15564194  0.37546426    -0.75300
O1868       O  0.84426938  0.09479913  0.42138346    -0.74900
O1869       O  0.73385167  0.12898925  0.35078860    -0.78400
O1870       O  0.78042096  0.08249638  0.30392195    -0.77800
O1871       O  0.83722485  0.05857635  0.34885074    -0.76200
Eu1872     Eu  0.78850708  0.15383514  0.33733510     2.39800
Eu1873     Eu  0.86738262  0.13079762  0.38884848     2.39600
Eu1874     Eu  0.87686462  0.18198008  0.33591601     2.38400
Eu1875     Eu  0.77870956  0.10187960  0.39017666     2.39900
Eu1876     Eu  0.81689207  0.09308944  0.33559189     2.39800
O1877       O  0.81737606  0.09243535  0.37558677    -0.90600
O1878       O  0.82671334  0.14303329  0.32325002    -0.89500
C1879       C  0.76357061  0.09379561  0.29640924     1.04600
C1880       C  0.85387950  0.05864014  0.36597625     1.03300
C1881       C  0.83941987  0.20497538  0.29535055     1.02700
C1882       C  0.71764601  0.11001674  0.36711983     1.04700
C1883       C  0.81641084  0.07753195  0.42966518     1.03600
C1884       C  0.93816884  0.17434868  0.35895018     1.02500
C1885       C  0.87517332  0.13168798  0.29348466     1.02500
C1886       C  0.74925999  0.03074622  0.35984720     1.05100
H1887       H  0.88213835  0.12695839  0.34258601     0.32500
O1888       O  0.86690909  0.13178362  0.34857916    -1.02800
H1889       H  0.75796513  0.08822119  0.34463268     0.34600
O1890       O  0.77861415  0.10387631  0.35000975    -1.05300
O1891       O  0.72471398  0.41029806  0.71529129    -0.77900
O1892       O  0.68550435  0.26912642  0.63986878    -0.79400
O1893       O  0.76213597  0.35220920  0.68008861    -0.76400
O1894       O  0.69991984  0.37177422  0.63799131    -0.74800
O1895       O  0.64695528  0.35370103  0.63815403    -0.76600
O1896       O  0.75650750  0.32436889  0.71297206    -0.77600
O1897       O  0.72128534  0.32232101  0.63868158    -0.78900
O1898       O  0.74657089  0.40291266  0.68335911    -0.79200
Eu1899     Eu  0.71164791  0.34787185  0.67096506     2.39200
O1900       O  0.66146669  0.30835298  0.65873944    -0.86700
O1901       O  0.71243236  0.34933207  0.71101585    -0.90300
C1902       C  0.74684047  0.41960684  0.70027816     1.04400
C1903       C  0.70919962  0.29400278  0.63092890     1.04200
C1904       C  0.77258696  0.34156630  0.69582847     1.04200
C1905       C  0.67474970  0.36986350  0.62960928     1.02000
H1906       H  0.71508690  0.29292312  0.68023547     0.31800
O1907       O  0.69982129  0.29813380  0.68553745    -0.99100
H1908       H  0.67900320  0.38039627  0.67801588     0.31800
O1909       O  0.67389151  0.35994950  0.68393101    -1.01600
O1910       O  0.60074369  0.20824477  0.68219952    -0.78800
O1911       O  0.63788792  0.35020238  0.75619498    -0.78400
O1912       O  0.70355957  0.25269247  0.71805589    -0.76800
O1913       O  0.59884153  0.28372721  0.63890844    -0.80200
O1914       O  0.61858773  0.36565683  0.68073086    -0.78000
O1915       O  0.72604956  0.33729926  0.75789218    -0.76700
O1916       O  0.62465804  0.24740763  0.75893844    -0.78200
O1917       O  0.56280711  0.26792723  0.71733813    -0.80100
O1918       O  0.67774149  0.26610212  0.75912462    -0.76800
O1919       O  0.56849097  0.29617024  0.68466988    -0.79500
O1920       O  0.67291145  0.22768687  0.68686735    -0.75300
O1921       O  0.70835537  0.37225643  0.75743212    -0.75300
O1922       O  0.64958982  0.39062142  0.71175411    -0.74900
O1923       O  0.61590701  0.24826011  0.63917790    -0.78400
O1924       O  0.57895951  0.21549711  0.71424109    -0.77800
O1925       O  0.60217936  0.29697362  0.75739348    -0.76200
Eu1926     Eu  0.64972304  0.25857477  0.67271858     2.39800
Eu1927     Eu  0.67451912  0.36082109  0.72413467     2.39600
Eu1928     Eu  0.70125966  0.30023032  0.72569297     2.38400
Eu1929     Eu  0.62343317  0.31983500  0.67153577     2.39900
Eu1930     Eu  0.61288408  0.27122274  0.72593672     2.39800
O1931       O  0.62476132  0.32087865  0.71148038    -0.90600
O1932       O  0.65115171  0.26017738  0.71291227    -0.89500
C1933       C  0.57899179  0.19860084  0.69753928     1.04600
C1934       C  0.61388619  0.32537995  0.76482396     1.03300
C1935       C  0.69111828  0.23006449  0.70354195     1.02700
C1936       C  0.60017271  0.26022302  0.63055218     1.04700
C1937       C  0.63036158  0.38770469  0.69573512     1.03600
C1938       C  0.72450835  0.36081965  0.76601490     1.02500
C1939       C  0.64984498  0.24956395  0.76750062     1.02500
C1940       C  0.55248471  0.27899321  0.70182767     1.05100
H1941       H  0.66293261  0.31157988  0.75498819     0.32500
O1942       O  0.66282428  0.31115362  0.73856051    -1.02800
H1943       H  0.59106991  0.25498522  0.68038670     0.34600
O1944       O  0.61180962  0.27034679  0.68579236    -1.05300
O1945       O  0.69933686  0.28493789  0.13801432    -0.77900
O1946       O  0.56021083  0.25551514  0.21358311    -0.79400
O1947       O  0.61525559  0.21054184  0.17601788    -0.76400
O1948       O  0.59978580  0.27749976  0.13623061    -0.74800
O1949       O  0.62032710  0.33108953  0.13720982    -0.76600
O1950       O  0.64414787  0.21429779  0.20774374    -0.77600
O1951       O  0.56534478  0.23336164  0.18090740    -0.78900
O1952       O  0.64582189  0.25131375  0.13673372    -0.79200
Eu1953     Eu  0.62139455  0.26276796  0.16884949     2.39200
O1954       O  0.61347036  0.30256420  0.18342394    -0.86700
O1955       O  0.67017539  0.27118067  0.18215895    -0.90300
C1956       C  0.67400252  0.26191296  0.12920818     1.04400
C1957       C  0.54919008  0.23471440  0.19766995     1.04200
C1958       C  0.62635974  0.19915033  0.19076165     1.04200
C1959       C  0.60322700  0.30357353  0.12819328     1.02000
H1960       H  0.60406157  0.23947006  0.21398657     0.31800
O1961       O  0.62038081  0.26012519  0.20894191    -0.99100
H1962       H  0.66347197  0.31377977  0.14061659     0.31800
O1963       O  0.66285441  0.31281955  0.15703943    -1.01600
O1964       O  0.62455377  0.33413209  0.25735241    -0.78800
O1965       O  0.76269444  0.36878040  0.17966788    -0.78400
O1966       O  0.63263180  0.24299709  0.25421622    -0.76800
O1967       O  0.60764646  0.35640128  0.17937787    -0.80200
O1968       O  0.69273088  0.37917324  0.14007664    -0.78000
O1969       O  0.71474596  0.26282813  0.21342258    -0.76700
O1970       O  0.72374404  0.34159424  0.25656300    -0.78200
O1971       O  0.70803953  0.41044939  0.21800573    -0.80100
O1972       O  0.70273215  0.28793287  0.25505208    -0.76800
O1973       O  0.67999460  0.40718364  0.18582646    -0.79500
O1974       O  0.59972833  0.26303197  0.25553156    -0.75300
O1975       O  0.74074109  0.29506075  0.18303062    -0.75300
O1976       O  0.72528059  0.35867614  0.13895806    -0.74900
O1977       O  0.58297540  0.32581512  0.21077580    -0.78400
O1978       O  0.67802863  0.36766673  0.25883367    -0.77800
O1979       O  0.75709714  0.39103033  0.21209053    -0.76200
Eu1980     Eu  0.61227301  0.30008257  0.22352570     2.39800
Eu1981     Eu  0.71158300  0.32108456  0.17058506     2.39600
Eu1982     Eu  0.66908841  0.26846160  0.22198804     2.38400
Eu1983     Eu  0.65428633  0.35251595  0.17118560     2.39900
Eu1984     Eu  0.70172455  0.35824449  0.22513434     2.39800
O1985       O  0.70236114  0.36008559  0.18509587    -0.90600
O1986       O  0.66081787  0.30802384  0.23664550    -0.89500
C1987       C  0.64988630  0.35636938  0.26671179     1.04600
C1988       C  0.77319258  0.39059081  0.19494616     1.03300
C1989       C  0.61000183  0.24525262  0.26308338     1.02700
C1990       C  0.58526070  0.34423196  0.19416697     1.04700
C1991       C  0.71572464  0.37712466  0.13160984     1.03600
C1992       C  0.73757591  0.27543759  0.19898241     1.02500
C1993       C  0.72028682  0.31517320  0.26393351     1.02500
C1994       C  0.69756798  0.42219107  0.20305598     1.05100
H1995       H  0.73059124  0.32282724  0.21632034     0.32500
O1996       O  0.71052795  0.31890901  0.21064525    -1.02800
H1997       H  0.64864434  0.36556733  0.21742137     0.34600
O1998       O  0.65296352  0.34997144  0.21140610    -1.05300
O1999       O  0.96621174  0.00475930  0.59149064    -0.77900
O2000       O  0.59973018  0.03136714  0.51301575    -0.79400
O2001       O  0.56401689  0.01446483  0.59052745    -0.76400
O2002       O  0.54671235  0.07895729  0.54936476    -0.74800
O2003       O  0.51662062  0.07356361  0.51803295    -0.76600
O2004       O  0.54095646  0.45659811  0.59131315    -0.77600
O2005       O  0.59575160  0.05565779  0.54488859    -0.78900
O2006       O  0.51978043  0.03851690  0.59106537    -0.79200
Eu2007     Eu  0.54077889  0.02689825  0.55774616     2.39200
O2008       O  0.54081696  0.02747534  0.51774570    -0.86700
O2009       O  0.99815459  0.47406143  0.57207796    -0.90300
C2010       C  0.99222650  0.02756595  0.59964826     1.04400
C2011       C  0.61118363  0.05305228  0.52826403     1.04200
C2012       C  0.55827412  0.48455213  0.59961142     1.04200
C2013       C  0.53506974  0.08968531  0.53450657     1.02000
H2014       H  0.56893778  0.99083675  0.55001944     0.31800
O2015       O  0.54592554  0.48318197  0.54508014    -0.99100
H2016       H  0.98709115  0.03373122  0.55136930     0.31800
O2017       O  0.99116134  0.01776580  0.54577561    -1.01600
O2018       O  0.53181836  0.44823597  0.47234294    -0.78800
O2019       O  0.89697677  0.42062776  0.55170750    -0.78400
O2020       O  0.55071366  0.42777499  0.54845639    -0.76800
O2021       O  0.52607385  0.04132018  0.47255665    -0.80200
O2022       O  0.94416264  0.02108074  0.51328856    -0.78000
O2023       O  0.96944145  0.40961877  0.59130048    -0.76700
O2024       O  0.94975372  0.37496954  0.51236900    -0.78200
O2025       O  0.93131346  0.44312891  0.47518893    -0.80100
O2026       O  0.97949337  0.37884262  0.54368056    -0.76800
O2027       O  0.95223542  0.49678693  0.47625359    -0.79500
O2028       O  0.57429676  0.45774665  0.51658075    -0.75300
O2029       O  0.93736201  0.43065364  0.59270847    -0.75300
O2030       O  0.91810490  0.49012443  0.54789550    -0.74900
O2031       O  0.55888963  0.02118277  0.47131135    -0.78400
O2032       O  0.97811779  0.41545359  0.47179973    -0.77800
O2033       O  0.90039734  0.39735699  0.51903252    -0.76200
Eu2034     Eu  0.54513758  0.48418707  0.50503270     2.39800
Eu2035     Eu  0.94913368  0.46601984  0.56016794     2.39600
Eu2036     Eu  0.50548604  0.43346334  0.55829981     2.38400
Eu2037     Eu  0.99145641  0.01820626  0.50584281     2.39900
Eu2038     Eu  0.95560085  0.42702864  0.50542076     2.39800
O2039       O  0.94848149  0.46716732  0.52025699    -0.90600
O2040       O  0.50446855  0.43504480  0.51822070    -0.89500
C2041       C  0.50608055  0.42567495  0.46368380     1.04600
C2042       C  0.88520763  0.39921727  0.53624476     1.03300
C2043       C  0.57228561  0.43920106  0.53302599     1.02700
C2044       C  0.54815812  0.03843020  0.46342710     1.04700
C2045       C  0.92147136  0.00864965  0.52779410     1.03600
C2046       C  0.94733789  0.41273928  0.60034551     1.02500
C2047       C  0.96121166  0.36356667  0.52680667     1.02500
C2048       C  0.93384576  0.46927159  0.46806298     1.05100
H2049       H  0.94066901  0.40525272  0.55107367     0.32500
O2050       O  0.95682274  0.42573418  0.54562446    -1.02800
H2051       H  0.99562954  0.47717403  0.47637631     0.34600
O2052       O  0.99619155  0.47665998  0.49279786    -1.05300
C2053       C  0.50573015  0.05520997  0.94260021    -0.11000
C2054       C  0.50736166  0.06976584  0.92555046    -0.12600
C2055       C  0.95258992  0.10175204  0.87376160    -0.11000
C2056       C  0.92996585  0.10431732  0.87016098    -0.12600
C2057       C  0.64701981  0.23240997  0.78813855    -0.11000
C2058       C  0.64691576  0.21874555  0.80533745    -0.12600
C2059       C  0.72606371  0.18390941  0.86009821    -0.11000
C2060       C  0.70369727  0.18693352  0.85615337    -0.12600
C2061       C  0.59232003  0.14669151  0.86883876    -0.14200
C2062       C  0.56425148  0.14271270  0.86272411    -0.29400
H2063       H  0.59408598  0.13423532  0.88360642     0.14800
H2064       H  0.56253102  0.15514933  0.84792475     0.15400
C2065       C  0.58710031  0.30193494  0.10727096    -0.11000
C2066       C  0.57407422  0.30109900  0.08957610    -0.12600
C2067       C  0.53866925  0.37684420  0.03186978    -0.11000
C2068       C  0.54287147  0.35524380  0.03591275    -0.12600
C2069       C  0.95449874  0.07984267  0.02589658    -0.11000
C2070       C  0.95334061  0.10315606  0.02136343    -0.12600
C2071       C  0.92595275  0.16243201  0.96948038    -0.11000
C2072       C  0.91111425  0.16203978  0.95295345    -0.12600
C2073       C  0.00135740  0.21645878  0.03102127    -0.14200
C2074       C  0.50653696  0.24480667  0.02435775    -0.29400
H2075       H  0.01270879  0.21426976  0.04625266     0.14800
H2076       H  0.49512268  0.24686559  0.00911021     0.15400
C2077       C  0.53668660  0.35151301  0.18609833    -0.11000
C2078       C  0.55970697  0.34998006  0.19087879    -0.12600
C2079       C  0.98013089  0.38021472  0.13257851    -0.11000
C2080       C  0.98170599  0.39511059  0.11563574    -0.12600
C2081       C  0.84315693  0.23707329  0.25780724    -0.11000
C2082       C  0.84243161  0.22288510  0.27495604    -0.12600
C2083       C  0.78537413  0.26646912  0.20597709    -0.11000
C2084       C  0.76260972  0.26879190  0.20189116    -0.12600
C2085       C  0.92444209  0.30868544  0.19684451    -0.14200
C2086       C  0.89620871  0.30491430  0.19146252    -0.29400
H2087       H  0.92667246  0.29685744  0.21182161     0.14800
H2088       H  0.89392751  0.31675896  0.17651569     0.15400
C2089       C  0.67739953  0.38699181  0.60905646    -0.11000
C2090       C  0.67705239  0.40038752  0.59187405    -0.12600
C2091       C  0.61986810  0.42987103  0.53952688    -0.11000
C2092       C  0.59728740  0.43245722  0.53539534    -0.12600
C2093       C  0.81383875  0.05878862  0.44944537    -0.11000
C2094       C  0.81418224  0.04417297  0.46601664    -0.12600
C2095       C  0.87245264  0.01480804  0.51805340    -0.11000
C2096       C  0.89533776  0.01334198  0.52355424    -0.12600
C2097       C  0.75891517  0.47209073  0.53296749    -0.14200
C2098       C  0.73097300  0.46841100  0.52675508    -0.29400
H2099       H  0.76069463  0.46028149  0.54812328     0.14800
H2100       H  0.72921575  0.48031276  0.51164510     0.15400
C2101       C  0.61876308  0.43377704  0.69039233    -0.11000
C2102       C  0.62255353  0.41183167  0.69375120    -0.12600
C2103       C  0.58887431  0.48929239  0.63777239    -0.11000
C2104       C  0.57528476  0.48741852  0.62020614    -0.12600
C2105       C  0.69693148  0.20470831  0.70703344    -0.11000
C2106       C  0.69953642  0.18232588  0.71176350    -0.12600
C2107       C  0.73149724  0.12607334  0.76274915    -0.11000
C2108       C  0.74637049  0.12739398  0.77950106    -0.12600
C2109       C  0.65564504  0.04316460  0.70470299    -0.14200
C2110       C  0.66042179  0.07164320  0.69882028    -0.29400
H2111       H  0.66651306  0.04044294  0.72001759     0.14800
H2112       H  0.64943249  0.07429587  0.68354850     0.15400
C2113       C  0.85861158  0.00778013  0.37510083    -0.11000
C2114       C  0.85688796  0.03087573  0.36966777    -0.12600
C2115       C  0.91463292  0.46811943  0.44951867    -0.11000
C2116       C  0.89872731  0.46765344  0.43386071    -0.12600
C2117       C  0.79541204  0.25138403  0.36052427    -0.11000
C2118       C  0.79311674  0.27458587  0.35694952    -0.12600
C2119       C  0.75089651  0.31516751  0.30046822    -0.11000
C2120       C  0.73727822  0.31561725  0.28366470    -0.12600
C2121       C  0.81073248  0.38418207  0.36068812    -0.14200
C2122       C  0.82926219  0.39401372  0.37894786    -0.29400
H2123       H  0.80579276  0.40070045  0.35186713     0.14800
H2124       H  0.83426010  0.37755385  0.38778854     0.15400
C2125       C  0.91609917  0.48623890  0.13209529    -0.11000
C2126       C  0.93100957  0.48755613  0.11559506    -0.12600
C2127       C  0.80483511  0.41737514  0.19177396    -0.11000
C2128       C  0.83023267  0.44025400  0.18690596    -0.12600
C2129       C  0.90250668  0.12958328  0.25526899    -0.11000
C2130       C  0.88925320  0.12942613  0.27261558    -0.12600
C2131       C  0.99082579  0.18776172  0.20368613    -0.11000
C2132       C  0.51672720  0.20993964  0.19976380    -0.12600
C2133       C  0.89503546  0.04706978  0.19756016    -0.14200
C2134       C  0.91866275  0.07578723  0.19130764    -0.29400
H2135       H  0.88099848  0.04473259  0.21242683     0.14800
H2136       H  0.93268842  0.07816699  0.17642611     0.15400
C2137       C  0.96949520  0.18039358  0.35564400    -0.11000
C2138       C  0.99410021  0.18211337  0.35115334    -0.12600
C2139       C  0.59487903  0.22655322  0.28304072    -0.11000
C2140       C  0.58112768  0.21166467  0.29983326    -0.12600
C2141       C  0.56169720  0.05547741  0.44261560    -0.11000
C2142       C  0.57374794  0.06910925  0.42505114    -0.12600
C2143       C  0.66053227  0.10009198  0.37349383    -0.11000
C2144       C  0.68593730  0.10316676  0.36983935    -0.12600
C2145       C  0.56263117  0.13954408  0.36384729    -0.14200
C2146       C  0.58689298  0.13576126  0.35845891    -0.29400
H2147       H  0.54852548  0.12779942  0.37881922     0.14800
H2148       H  0.60098859  0.14755185  0.34349245     0.15400
C2149       C  0.83398170  0.44259963  0.04396408    -0.11000
C2150       C  0.85780581  0.44326009  0.03833937    -0.12600
C2151       C  0.73230231  0.39693877  0.11240529    -0.11000
C2152       C  0.74738256  0.41279900  0.09631050    -0.12600
C2153       C  0.76599364  0.06687886  0.95552363    -0.08000
C2154       C  0.75211137  0.05254810  0.97240581    -0.12600
C2155       C  0.63607927  0.01818733  0.02326007    -0.11000
C2156       C  0.66129035  0.02041836  0.02017534    -0.12600
C2157       C  0.74308495  0.49170891  0.03996367    -0.14200
C2158       C  0.76771596  0.48845794  0.03462838    -0.29400
H2159       H  0.72879524  0.47952660  0.05476862     0.14800
H2160       H  0.78190148  0.50054229  0.01976022     0.15400
C2161       C  0.72360994  0.29036534  0.61062625    -0.11000
C2162       C  0.73750939  0.29025841  0.59365537    -0.12600
C2163       C  0.85303791  0.37444600  0.53940756    -0.11000
C2164       C  0.82740744  0.35211049  0.54388809    -0.12600
C2165       C  0.66888404  0.09975360  0.52176268    -0.11000
C2166       C  0.64338026  0.07726414  0.52574032    -0.12600
C2167       C  0.76640155  0.15717988  0.45224371    -0.11000
C2168       C  0.75427793  0.15929865  0.46945554    -0.12600
C2169       C  0.75859300  0.24101058  0.52856546    -0.14200
C2170       C  0.73569985  0.21166503  0.53393280    -0.29400
H2171       H  0.77317067  0.24484725  0.51371595     0.14800
H2172       H  0.72127829  0.20790188  0.54886483     0.15400
C2173       C  0.90678342  0.23589246  0.75996014    -0.11000
C2174       C  0.89290526  0.22220316  0.77708467    -0.12600
C2175       C  0.52090834  0.27256378  0.70462920    -0.11000
C2176       C  0.99537594  0.26885175  0.70890420    -0.12600
C2177       C  0.82927830  0.35077101  0.68851964    -0.11000
C2178       C  0.80418677  0.34797976  0.69307812    -0.12600
C2179       C  0.93210440  0.39493557  0.62058166    -0.11000
C2180       C  0.91745488  0.38108987  0.63740897    -0.12600
C2181       C  0.89823649  0.30890325  0.70086241    -0.14200
C2182       C  0.92179765  0.30443841  0.69469952    -0.29400
H2183       H  0.88451089  0.29735671  0.71601879     0.14800
H2184       H  0.93554510  0.31605548  0.67956222     0.15400
C2185       C  0.65834755  0.02026362  0.87751233    -0.11000
C2186       C  0.68405303  0.04273473  0.87368181    -0.12600
C2187       C  0.57058594  0.46343708  0.92169500    -0.11000
C2188       C  0.55825323  0.46385452  0.93921812    -0.12600
C2189       C  0.99504797  0.27188706  0.85140280    -0.11000
C2190       C  0.97007912  0.24910555  0.85658826    -0.12600
C2191       C  0.58413340  0.33005276  0.80061390    -0.11000
C2192       C  0.59863019  0.32927431  0.78434023    -0.12600
C2193       C  0.56321395  0.38448760  0.86154656    -0.14200
C2194       C  0.58726240  0.41325401  0.85595540    -0.29400
H2195       H  0.54861352  0.38173578  0.87615869     0.14800
H2196       H  0.60190567  0.41610005  0.84135189     0.15400
C2197       C  0.72947895  0.06379294  0.26036446    -0.11000
C2198       C  0.74445582  0.07848262  0.27677686    -0.12600
C2199       C  0.70688998  0.47907523  0.21118673    -0.11000
C2200       C  0.70440790  0.45395708  0.20677398    -0.12600
C2201       C  0.59013184  0.05512137  0.13397699    -0.11000
C2202       C  0.57597071  0.04207959  0.11693512    -0.12600
C2203       C  0.61995316  0.16757088  0.18743510    -0.11000
C2204       C  0.61826955  0.14264161  0.18399055    -0.12600
C2205       C  0.65665678  0.07089446  0.20042087    -0.14200
C2206       C  0.65954476  0.04579717  0.19569577    -0.29400
H2207       H  0.66859021  0.08539525  0.21514130     0.14800
H2208       H  0.64753448  0.03125720  0.18100698     0.15400
C2209       C  0.70245983  0.47119620  0.35562225    -0.11000
C2210       C  0.72414907  0.99866143  0.35717820    -0.12600
C2211       C  0.64525035  0.38240823  0.30485515    -0.11000
C2212       C  0.64660300  0.36986613  0.28756306    -0.12600
C2213       C  0.50865386  0.41046614  0.44346509    -0.11000
C2214       C  0.50990043  0.39681378  0.42674283    -0.12600
C2215       C  0.93003970  0.28522998  0.36852133    -0.11000
C2216       C  0.95192418  0.31048410  0.37391857    -0.12600
C2217       C  0.56386631  0.37568434  0.36471377    -0.14200
C2218       C  0.59271808  0.39910522  0.37007045    -0.29400
H2219       H  0.56064634  0.36112309  0.34997936     0.14800
H2220       H  0.59592531  0.41376986  0.38473602     0.15400
C2221       C  0.59698177  0.11993494  0.03578601    -0.11000
C2222       C  0.61958016  0.14525365  0.04052847    -0.12600
C2223       C  0.67710831  0.24662901  0.10933212    -0.11000
C2224       C  0.67771986  0.23270988  0.09261157    -0.12600
C2225       C  0.81271019  0.22218299  0.97042747    -0.11000
C2226       C  0.81420847  0.20931239  0.95350599    -0.12600
C2227       C  0.89512840  0.33427047  0.02461765    -0.11000
C2228       C  0.87195223  0.30895124  0.02139410    -0.12600
C2229       C  0.75985859  0.24021725  0.03411330    -0.14200
C2230       C  0.73113482  0.21653373  0.02830332    -0.29400
H2231       H  0.76268630  0.25426827  0.04906893     0.14800
H2232       H  0.72836398  0.20250304  0.01334567     0.15400
C2233       C  0.56945612  0.23303679  0.59249811    -0.11000
C2234       C  0.58297186  0.24613245  0.60985575    -0.12600
C2235       C  0.54130902  0.12141480  0.53741760    -0.11000
C2236       C  0.54291614  0.14631474  0.54120692    -0.12600
C2237       C  0.95203345  0.30666687  0.51845556    -0.11000
C2238       C  0.95447449  0.33178160  0.52297312    -0.12600
C2239       C  0.92386857  0.21869355  0.46755459    -0.11000
C2240       C  0.90985039  0.20485410  0.45052409    -0.12600
C2241       C  0.99446777  0.23790476  0.53249644    -0.14200
C2242       C  0.49963642  0.21447279  0.52710369    -0.29400
H2243       H  0.00567858  0.25211699  0.54747610     0.14800
H2244       H  0.48835417  0.20019356  0.51216413     0.15400
C2245       C  0.86823639  0.28767567  0.86994473    -0.11000
C2246       C  0.86985295  0.31240430  0.87415928    -0.12600
C2247       C  0.90009483  0.39979783  0.92543585    -0.11000
C2248       C  0.91522514  0.41400571  0.94193134    -0.12600
C2249       C  0.74170624  0.37556523  0.78645608    -0.11000
C2250       C  0.75480053  0.38932044  0.80367283    -0.12600
C2251       C  0.78316640  0.47591307  0.85572085    -0.11000
C2252       C  0.79187753  0.00287048  0.86008863    -0.12600
C2253       C  0.82531409  0.37979555  0.86376370    -0.14200
C2254       C  0.82117616  0.40373098  0.86972229    -0.29400
H2255       H  0.81341494  0.36577888  0.84884368     0.14800
H2256       H  0.83303589  0.41773914  0.88465326     0.15400
C2257       C  0.52912968  0.14135874  0.69079671    -0.11000
C2258       C  0.55187701  0.16705719  0.69505170    -0.12600
C2259       C  0.99076091  0.04250145  0.61989186    -0.11000
C2260       C  0.98998112  0.05568222  0.63674573    -0.12600
C2261       C  0.79804269  0.47555166  0.70801105    -0.11000
C2262       C  0.77471094  0.45049623  0.70333124    -0.12600
C2263       C  0.83639504  0.07424851  0.78145863    -0.11000
C2264       C  0.83696565  0.06027377  0.76503259    -0.12600
C2265       C  0.90932137  0.06362259  0.70976023    -0.14200
C2266       C  0.91868428  0.05203219  0.69315688    -0.29400
H2267       H  0.92620020  0.08596778  0.71752653     0.14800
H2268       H  0.90180887  0.02961240  0.68547617     0.15400
C2269       C  0.82354528  0.50508978  0.71678349     0.82500
N2270       N  0.85316063  0.51952085  0.70765574    -0.75800
C2271       C  0.87648823  0.54736342  0.71665515     0.84900
N2272       N  0.87002334  0.56018083  0.73445276    -0.75800
C2273       C  0.84099797  0.54578879  0.74358386     0.85000
N2274       N  0.81770176  0.51827441  0.73488476    -0.77500
C2275       C  0.50521957  0.61183343  0.68305181     0.82500
N2276       N  0.97609929  0.59724153  0.69299291    -0.75800
C2277       C  0.95252842  0.56913009  0.68450102     0.84900
N2278       N  0.95829001  0.55612840  0.66648039    -0.75800
C2279       C  0.98682607  0.57044701  0.65661466     0.85000
N2280       N  0.51032101  0.59833401  0.66471861    -0.77500
C2281       C  0.79171492  0.95125183  0.84731528     0.82500
N2282       N  0.81032345  0.94279716  0.85866862    -0.75800
C2283       C  0.81316871  0.91827867  0.85132826     0.84900
N2284       N  0.79722050  0.90212906  0.83244404    -0.75800
C2285       C  0.77858652  0.91046794  0.82096456     0.85000
N2286       N  0.77591267  0.93513604  0.82836455    -0.77500
C2287       C  0.87666561  0.84250990  0.87799144     0.82500
N2288       N  0.86013120  0.85204315  0.86502754    -0.75800
C2289       C  0.85763092  0.87712591  0.87143987     0.84900
N2290       N  0.87164724  0.89253204  0.89101695    -0.75800
C2291       C  0.88808455  0.88307198  0.90407723     0.85000
N2292       N  0.89047168  0.85790269  0.89763406    -0.77500
C2293       C  0.95651737  0.78061585  0.51400654     0.82500
N2294       N  0.97477468  0.77227950  0.52599911    -0.75800
C2295       C  0.97626830  0.74644393  0.52007521     0.84900
N2296       N  0.95928928  0.72885459  0.50194695    -0.75800
C2297       C  0.94095502  0.73704873  0.48986674     0.85000
N2298       N  0.93967307  0.76302473  0.49585709    -0.77500
C2299       C  0.54079969  0.67210462  0.54926839     0.82500
N2300       N  0.55576384  0.68905638  0.56807723    -0.75800
C2301       C  0.55346476  0.71445584  0.57382590     0.84900
N2302       N  0.53597747  0.72276820  0.56086680    -0.75800
C2303       C  0.52076249  0.70581081  0.54204527     0.85000
N2304       N  0.52320028  0.68040832  0.53633643    -0.77500
C2305       C  0.83684517  0.77871952  0.01550389     0.82500
N2306       N  0.84217285  0.76577319  0.99702769    -0.75800
C2307       C  0.81838235  0.73892753  0.98793360     0.84900
N2308       N  0.78934343  0.72500406  0.99704838    -0.75800
C2309       C  0.78346320  0.73759903  0.01529840     0.85000
N2310       N  0.80729442  0.76479085  0.02464240    -0.77500
C2311       C  0.65481689  0.67581824  0.04797226     0.82500
N2312       N  0.64913392  0.68990797  0.06556400    -0.75800
C2313       C  0.67269542  0.71750367  0.07398025     0.84900
N2314       N  0.70185414  0.73095909  0.06514515    -0.75800
C2315       C  0.70809322  0.71726156  0.04779740     0.85000
N2316       N  0.68449879  0.68937962  0.03909368    -0.77500
C2317       C  0.97981941  0.83828794  0.38268476     0.82500
N2318       N  0.50579380  0.84692937  0.36998943    -0.75800
C2319       C  0.53369918  0.87271437  0.37563530     0.84900
N2320       N  0.53546956  0.88999228  0.39417391    -0.75800
C2321       C  0.00943836  0.88125723  0.40694022     0.85000
N2322       N  0.98163479  0.85535193  0.40121677    -0.77500
C2323       C  0.64319898  0.90099890  0.32359356     0.82500
N2324       N  0.61703111  0.89308023  0.33601554    -0.75800
C2325       C  0.61884244  0.91075389  0.35430355     0.84900
N2326       N  0.64687803  0.93629489  0.36002131    -0.75800
C2327       C  0.67301990  0.94435082  0.34768157     0.85000
N2328       N  0.67119863  0.92682052  0.32935487    -0.77500
C2329       C  0.61940384  0.61233959  0.17952129     0.82500
N2330       N  0.63799434  0.60480618  0.19184460    -0.75800
C2331       C  0.64066045  0.57963739  0.18599895     0.84900
N2332       N  0.62466803  0.56206233  0.16756293    -0.75800
C2333       C  0.60610973  0.56967027  0.15518517     0.85000
N2334       N  0.60360014  0.59486957  0.16113611    -0.77500
C2335       C  0.71805434  0.54943353  0.24117010     0.82500
N2336       N  0.72063546  0.52407561  0.23556355    -0.75800
C2337       C  0.70596195  0.50706857  0.21664061     0.84900
N2338       N  0.68846124  0.51522297  0.20354656    -0.75800
C2339       C  0.68571372  0.54043250  0.20907429     0.85000
N2340       N  0.70055818  0.55749274  0.22795614    -0.77500
C2341       C  0.52569251  0.79852583  0.84429728     0.82500
N2342       N  0.54358718  0.80107750  0.82605560    -0.75800
C2343       C  0.56895900  0.82950012  0.82040882     0.84900
N2344       N  0.57622691  0.85545774  0.83298856    -0.75800
C2345       C  0.55813465  0.85290896  0.85126392     0.85000
N2346       N  0.53293241  0.82439083  0.85676092    -0.77500
C2347       C  0.62968007  0.99134101  0.88244412     0.82500
N2348       N  0.62167441  0.96556072  0.86966202    -0.75800
C2349       C  0.59585665  0.93735654  0.87484567     0.84900
N2350       N  0.57788772  0.93501635  0.89314797    -0.75800
C2351       C  0.58587286  0.96091372  0.90603694     0.85000
N2352       N  0.61319994  0.49342666  0.89557086    -0.77500
C2353       C  0.90244527  0.86671682  0.65660286     0.82500
N2354       N  0.91102537  0.84911120  0.66919704    -0.75800
C2355       C  0.89411662  0.83313541  0.68789461     0.84900
N2356       N  0.86853591  0.83484028  0.69387598    -0.75800
C2357       C  0.85989239  0.85245915  0.68135762     0.85000
N2358       N  0.87674693  0.86829807  0.66261612    -0.77500
C2359       C  0.96942059  0.76989881  0.71496158     0.82500
N2360       N  0.95240498  0.75335354  0.73341482    -0.75800
C2361       C  0.92668992  0.75471908  0.73964373     0.84900
N2362       N  0.91821071  0.77282545  0.72756098    -0.75800
C2363       C  0.93533059  0.78951743  0.70913415     0.85000
N2364       N  0.96094065  0.78800952  0.70293479    -0.77500
C2365       C  0.69399611  0.62666957  0.51922256     0.82500
N2366       N  0.70200152  0.65343075  0.53082949    -0.75800
C2367       C  0.72665198  0.68154115  0.52381635     0.84900
N2368       N  0.74303969  0.68270499  0.50490016    -0.75800
C2369       C  0.73476322  0.65580826  0.49329567     0.85000
N2370       N  0.71019822  0.62791639  0.50040608    -0.77500
C2371       C  0.80190807  0.82191466  0.55036246     0.82500
N2372       N  0.78459001  0.82072007  0.56867707    -0.75800
C2373       C  0.75837685  0.79303240  0.57465352     0.84900
N2374       N  0.74975709  0.76655485  0.56240575    -0.75800
C2375       C  0.76710380  0.76763624  0.54412509     0.85000
N2376       N  0.79313521  0.79536826  0.53821251    -0.77500
C2377       C  0.69634079  0.52553003  0.01741191     0.82500
N2378       N  0.69769115  0.00219400  0.02802003    -0.75800
C2379       C  0.72367277  0.00069925  0.02272704     0.84900
N2380       N  0.74950918  0.52522559  0.00644068    -0.75800
C2381       C  0.73920323  0.54055830  0.99284648     0.85000
N2382       N  0.71251425  0.54053880  0.99828096    -0.77500
C2383       C  0.79775012  0.93616082  0.05168038     0.82500
N2384       N  0.78954133  0.95429173  0.03932457    -0.75800
C2385       C  0.76410878  0.95636854  0.04524995     0.84900
N2386       N  0.74682692  0.94016787  0.06379073    -0.75800
C2387       C  0.75486183  0.92198507  0.07629482     0.85000
N2388       N  0.78044606  0.92006688  0.07026385    -0.77500
C2389       C  0.62807919  0.59609302  0.38131080     0.82500
N2390       N  0.61186013  0.58100856  0.40033164    -0.75800
C2391       C  0.58668787  0.58310419  0.40669863     0.84900
N2392       N  0.57780994  0.60052349  0.39418947    -0.75800
C2393       C  0.59406687  0.61582750  0.37511069     0.85000
N2394       N  0.61934872  0.61368287  0.36876914    -0.77500
C2395       C  0.51876754  0.67941641  0.34766689     0.82500
N2396       N  0.52727735  0.66159810  0.36014589    -0.75800
C2397       C  0.55253011  0.65936438  0.35391827     0.84900
N2398       N  0.56920295  0.67501571  0.33507988    -0.75800
C2399       C  0.56075828  0.69274548  0.32253726     0.85000
N2400       N  0.53544708  0.69489399  0.32877078    -0.77500
C2401       C  0.91605315  0.62726913  0.24272900     0.82500
N2402       N  0.90323790  0.59839404  0.23335690    -0.75800
C2403       C  0.91762879  0.59323144  0.21589351     0.84900
N2404       N  0.94543343  0.61756311  0.20766048    -0.75800
C2405       C  0.95830720  0.64685403  0.21710120     0.85000
N2406       N  0.94359170  0.65151020  0.23475618    -0.77500
C2407       C  0.89578605  0.99087021  0.15565902     0.82500
N2408       N  0.91367437  0.51669311  0.16226691    -0.75800
C2409       C  0.89995916  0.52068041  0.18068053     0.84900
N2410       N  0.86124618  0.99024548  0.19176262    -0.75800
C2411       C  0.85271728  0.96298516  0.18065834     0.85000
N2412       N  0.86994058  0.96331096  0.16250307    -0.77500
C2413       C  0.76597294  0.81836357  0.32208805     0.82500
N2414       N  0.76938154  0.79468951  0.33097937    -0.75800
C2415       C  0.78852837  0.80021147  0.34929090     0.84900
N2416       N  0.80444848  0.82992816  0.35849493    -0.75800
C2417       C  0.80074212  0.85358443  0.34927142     0.85000
N2418       N  0.78156073  0.84736317  0.33123230    -0.77500
C2419       C  0.86190163  0.98201743  0.38453197     0.82500
N2420       N  0.84739968  0.95263329  0.37482337    -0.75800
C2421       C  0.85091390  0.92905929  0.38440892     0.84900
N2422       N  0.86850323  0.93503100  0.40333275    -0.75800
C2423       C  0.88261827  0.96369769  0.41301879     0.85000
N2424       N  0.87621105  0.48613258  0.40513528    -0.77500
C2425       C  0.70274565  0.65600885  0.71532728     0.82500
N2426       N  0.68421985  0.62911630  0.70363602    -0.75800
C2427       C  0.68160700  0.60148265  0.71043823     0.84900
N2428       N  0.69768840  0.60088555  0.72918718    -0.75800
C2429       C  0.71623231  0.62785818  0.74095650     0.85000
N2430       N  0.71860456  0.65537707  0.73405883    -0.77500
C2431       C  0.61792723  0.96129889  0.68392409     0.82500
N2432       N  0.63438796  0.98736350  0.69688695    -0.75800
C2433       C  0.63633364  0.51538754  0.69018974     0.84900
N2434       N  0.62112671  0.51589526  0.67088821    -0.75800
C2435       C  0.60561040  0.99030479  0.65823734     0.85000
N2436       N  0.60371818  0.96277813  0.66450142    -0.77500
C2437       C  0.84263003  0.51393023  0.51561162     0.82500
N2438       N  0.84201371  0.52934401  0.49644416    -0.75800
C2439       C  0.81436310  0.52624747  0.48915201     0.84900
N2440       N  0.78752028  0.50773453  0.50092926    -0.75800
C2441       C  0.78799610  0.49222732  0.52001439     0.85000
N2442       N  0.81559989  0.49534128  0.52727448    -0.77500
C2443       C  0.65082884  0.93244237  0.54580782     0.82500
N2444       N  0.67692493  0.94858176  0.53272099    -0.75800
C2445       C  0.70410201  0.94969405  0.53863360     0.84900
N2446       N  0.70505676  0.93458577  0.55787833    -0.75800
C2447       C  0.67897580  0.91846399  0.57103907     0.85000
N2448       N  0.65190937  0.91753435  0.56504139    -0.77500
C2449       C  0.81649537  0.77255543  0.21748419     0.82500
N2450       N  0.84533856  0.78692026  0.20689997    -0.75800
C2451       C  0.86933453  0.78381243  0.21601553     0.84900
N2452       N  0.86434878  0.76689718  0.23523117    -0.75800
C2453       C  0.83639617  0.75318848  0.24580714     0.85000
N2454       N  0.81230435  0.75579732  0.23703876    -0.77500
C2455       C  0.49688851  0.84198708  0.18038889     0.82500
N2456       N  0.96802565  0.82901843  0.19066229    -0.75800
C2457       C  0.94532613  0.83411810  0.18145361     0.84900
N2458       N  0.95183766  0.85198449  0.16253738    -0.75800
C2459       C  0.98012550  0.86462057  0.15243618     0.85000
N2460       N  0.50261247  0.85955765  0.16112457    -0.77500
C2461       C  0.95689690  0.63204575  0.01342997     0.82500
N2462       N  0.97426558  0.65877689  0.02557315    -0.75800
C2463       C  0.97611883  0.68613426  0.01896037     0.84900
N2464       N  0.96041904  0.68665915  0.00000894    -0.75800
C2465       C  0.94300582  0.65993151  0.98777371     0.85000
N2466       N  0.94136959  0.63260963  0.99442745    -0.77500
C2467       C  0.53792323  0.82548917  0.04632045     0.82500
N2468       N  0.55268509  0.82438539  0.06560300    -0.75800
C2469       C  0.55143705  0.79708609  0.07178049     0.84900
N2470       N  0.53509747  0.77090910  0.05881919    -0.75800
C2471       C  0.52016099  0.77193714  0.03958357     0.85000
N2472       N  0.52161354  0.79926978  0.03344943    -0.77500
C2473       C  0.67932218  0.69020339  0.85039366     0.82500
N2474       N  0.67890066  0.70585586  0.83137627    -0.75800
C2475       C  0.65184053  0.70455122  0.82482940     0.84900
N2476       N  0.62516473  0.68732853  0.83713443    -0.75800
C2477       C  0.62541383  0.67147913  0.85611877     0.85000
N2478       N  0.65256039  0.67291701  0.86265295    -0.77500
C2479       C  0.98441218  0.60493695  0.88017906     0.82500
N2480       N  0.98492144  0.58829746  0.89857415    -0.75800
C2481       C  0.01238822  0.59065765  0.90534521     0.84900
N2482       N  0.53930964  0.60971657  0.89384024    -0.75800
C2483       C  0.53899987  0.62658649  0.87550681     0.85000
N2484       N  0.51145087  0.62416055  0.86878377    -0.77500
O2485       O  0.86096433  0.61331811  0.80604190    -0.77900
O2486       O  0.72942360  0.59197331  0.88343322    -0.79400
O2487       O  0.78144231  0.54377884  0.84844257    -0.76400
O2488       O  0.76342678  0.60718121  0.80693650    -0.74800
O2489       O  0.78412717  0.66075303  0.80526881    -0.76600
O2490       O  0.81280972  0.54939457  0.87909910    -0.77600
O2491       O  0.73282054  0.56771370  0.85139472    -0.78900
O2492       O  0.80732335  0.58066209  0.80705874    -0.79200
Eu2493     Eu  0.78781303  0.59543017  0.83938162     2.39200
O2494       O  0.78070764  0.63626469  0.85205947    -0.86700
O2495       O  0.83701073  0.60368732  0.85153409    -0.90300
C2496       C  0.83463387  0.59026592  0.79860282     1.04400
C2497       C  0.71752237  0.57054885  0.86794372     1.04200
C2498       C  0.79347532  0.53318654  0.86301046     1.04200
C2499       C  0.76607267  0.63242159  0.79790332     1.02000
H2500       H  0.77344113  0.57528221  0.88528644     0.31800
O2501       O  0.78968466  0.59543152  0.87938371    -0.99100
H2502       H  0.82732338  0.64312246  0.80803464     0.31800
O2503       O  0.82807355  0.64369816  0.82445879    -1.01600
O2504       O  0.79836706  0.67397220  0.92368978    -0.78800
O2505       O  0.92939732  0.69829532  0.84340649    -0.78400
O2506       O  0.80497579  0.58295348  0.92517274    -0.76800
O2507       O  0.77563768  0.69029552  0.84686361    -0.80200
O2508       O  0.85706118  0.70811008  0.80468835    -0.78000
O2509       O  0.88511851  0.59953091  0.88229234    -0.76700
O2510       O  0.89672880  0.68257684  0.92185266    -0.78200
O2511       O  0.87831304  0.74627514  0.88026322    -0.80100
O2512       O  0.87591532  0.62895369  0.92345865    -0.76800
O2513       O  0.84785009  0.74062820  0.84902728    -0.79500
O2514       O  0.77157545  0.60248845  0.92553412    -0.75300
O2515       O  0.90762036  0.62759911  0.84953785    -0.75300
O2516       O  0.88923228  0.68714287  0.80395104    -0.74900
O2517       O  0.75295553  0.66213139  0.87956661    -0.78400
O2518       O  0.85190097  0.70751969  0.92242366    -0.77800
O2519       O  0.92641423  0.72379870  0.87488704    -0.76200
Eu2520     Eu  0.78243490  0.63658785  0.89198461     2.39800
Eu2521     Eu  0.87714469  0.65207619  0.83690647     2.39600
Eu2522     Eu  0.83938773  0.60487100  0.89149326     2.38400
Eu2523     Eu  0.82094945  0.68477606  0.83731483     2.39900
Eu2524     Eu  0.87214522  0.69453312  0.88942576     2.39800
O2525       O  0.87011337  0.69333978  0.84953524    -0.90600
O2526       O  0.83198047  0.64585744  0.90391331    -0.89500
C2527       C  0.82460101  0.69701028  0.93125955     1.04600
C2528       C  0.94121526  0.72095787  0.85791138     1.03300
C2529       C  0.78261821  0.58579517  0.93393340     1.02700
C2530       C  0.75449241  0.67968210  0.86258357     1.04700
C2531       C  0.87935099  0.70505519  0.79605913     1.03600
C2532       C  0.90646599  0.61043931  0.86667697     1.02500
C2533       C  0.89397439  0.65721994  0.93084895     1.02500
C2534       C  0.86681489  0.75693638  0.86526959     1.05100
H2535       H  0.89996315  0.65835412  0.88201455     0.32500
O2536       O  0.87945467  0.65373765  0.87685810    -1.02800
H2537       H  0.81879249  0.70158616  0.88290339     0.34600
O2538       O  0.82244398  0.68530667  0.87738656    -1.05300
O2539       O  0.92809568  0.94932968  0.97215085    -0.77900
O2540       O  0.53838155  0.92258916  0.04782175    -0.79400
O2541       O  0.51620365  0.93770595  0.97169308    -0.76400
O2542       O  0.93356268  0.87532687  0.01500575    -0.74800
O2543       O  0.91198951  0.88164638  0.04754225    -0.76600
O2544       O  0.55073353  0.99121905  0.97028159    -0.77600
O2545       O  0.50620106  0.89648714  0.01760349    -0.78900
O2546       O  0.94715259  0.91548703  0.97177225    -0.79200
Eu2547     Eu  0.98121128  0.92642462  0.00484017     2.39200
O2548       O  0.98370310  0.92805207  0.04471793    -0.86700
O2549       O  0.99121422  0.97596368  0.99138794    -0.90300
C2550       C  0.93054505  0.92658277  0.96349082     1.04400
C2551       C  0.52571070  0.89969451  0.03354251     1.04200
C2552       C  0.53921604  0.96289783  0.96262221     1.04200
C2553       C  0.91223882  0.86512918  0.03070473     1.02000
H2554       H  0.54712764  0.96224974  0.01059446     0.31800
O2555       O  0.53159374  0.96682372  0.01631120    -0.99100
H2556       H  0.92170314  0.92071922  0.01363621     0.31800
O2557       O  0.94242737  0.93651755  0.01878660    -1.01600
O2558       O  0.55968892  0.00487244  0.08805940    -0.78800
O2559       O  0.95438824  0.53457356  0.01190755    -0.78400
O2560       O  0.59856100  0.52308746  0.01128597    -0.76800
O2561       O  0.96053183  0.91327966  0.08959091    -0.80200
O2562       O  0.89366763  0.93334829  0.05199843    -0.78000
O2563       O  0.53536880  0.54278112  0.96997869    -0.76700
O2564       O  0.55778893  0.57810371  0.04766411    -0.78200
O2565       O  0.97047989  0.51237698  0.08785471    -0.80100
O2566       O  0.58035077  0.57283373  0.01526969    -0.76800
O2567       O  0.93350652  0.96032372  0.09199625    -0.79500
O2568       O  0.58870294  0.99393556  0.04299327    -0.75300
O2569       O  0.98222055  0.52380938  0.96989794    -0.75300
O2570       O  0.89768363  0.96154470  0.01962823    -0.74900
O2571       O  0.51378669  0.93342916  0.08824318    -0.78400
O2572       O  0.54278390  0.53733623  0.08930539    -0.77800
O2573       O  0.98441374  0.55817478  0.04361198    -0.76200
Eu2574     Eu  0.53393878  0.96879022  0.05610945     2.39800
Eu2575     Eu  0.95219659  0.98564731  0.00489720     2.39600
Eu2576     Eu  0.54747721  0.51796890  0.00209586     2.38400
Eu2577     Eu  0.94470253  0.93724981  0.05897979     2.39900
Eu2578     Eu  0.50874553  0.52733333  0.05601076     2.39800
O2579       O  0.95401585  0.98621289  0.04498582    -0.90600
O2580       O  0.54750266  0.51739815  0.04216488    -0.89500
C2581       C  0.55908071  0.52564775  0.09732269     1.04600
C2582       C  0.96615987  0.55634823  0.02710311     1.03300
C2583       C  0.60905177  0.51240690  0.02703156     1.02700
C2584       C  0.98649141  0.91574290  0.09678241     1.04700
C2585       C  0.88247476  0.94441550  0.03707965     1.03600
C2586       C  0.51010736  0.54073971  0.96168412     1.02500
C2587       C  0.57980163  0.58867943  0.03246934     1.02500
C2588       C  0.94414387  0.98847864  0.09963422     1.05100
H2589       H  0.51369246  0.54856266  0.01038518     0.32500
O2590       O  0.50869351  0.52794895  0.01583112    -1.02800
H2591       H  0.99555288  0.97749357  0.08765834     0.34600
O2592       O  0.99473052  0.97741741  0.07122977    -1.05300
O2593       O  0.89055729  0.66564346  0.42533644    -0.77900
O2594       O  0.78370928  0.70082537  0.35157975    -0.79400
O2595       O  0.88231810  0.74074013  0.38711625    -0.76400
O2596       O  0.79974578  0.67667368  0.42711193    -0.74800
O2597       O  0.76524562  0.62312285  0.42743549    -0.76600
O2598       O  0.90488410  0.73652052  0.35439674    -0.77600
O2599       O  0.81453884  0.72367323  0.38299562    -0.78900
O2600       O  0.87183902  0.69973717  0.42704206    -0.79200
Eu2601     Eu  0.83562235  0.68935802  0.39512323     2.39200
O2602       O  0.78530877  0.64996935  0.38257319    -0.86700
O2603       O  0.87459612  0.67982595  0.38101732    -0.90300
C2604       C  0.88905574  0.68873170  0.43434499     1.04400
C2605       C  0.79706829  0.72333346  0.36635213     1.04200
C2606       C  0.90362557  0.75195303  0.37157069     1.04200
C2607       C  0.77666308  0.65118947  0.43554653     1.02000
H2608       H  0.84011062  0.71162005  0.35011362     0.31800
O2609       O  0.83491618  0.69088044  0.35534514    -0.99100
H2610       H  0.82609157  0.63849302  0.42350925     0.31800
O2611       O  0.82574149  0.63912132  0.40708341    -1.01600
O2612       O  0.76124243  0.61744275  0.30871728    -0.78800
O2613       O  0.86419342  0.57995892  0.38401610    -0.78400
O2614       O  0.85912031  0.70631331  0.30971668    -0.76800
O2615       O  0.72401523  0.59387413  0.38566833    -0.80200
O2616       O  0.78874707  0.57370004  0.42533084    -0.78000
O2617       O  0.92488159  0.68600571  0.34827899    -0.76700
O2618       O  0.85047362  0.60767299  0.30711728    -0.78200
O2619       O  0.76906504  0.54107496  0.34773292    -0.80100
O2620       O  0.88406350  0.66135000  0.30713296    -0.76800
O2621       O  0.74606962  0.54441717  0.38057790    -0.79500
O2622       O  0.80582667  0.68670564  0.31037046    -0.75300
O2623       O  0.91946142  0.65427904  0.37883532    -0.75300
O2624       O  0.84204083  0.59326758  0.42487290    -0.74900
O2625       O  0.72990433  0.62574456  0.35511141    -0.78400
O2626       O  0.77992032  0.58334649  0.30701342    -0.77800
O2627       O  0.83475490  0.55829213  0.35185278    -0.76200
Eu2628     Eu  0.78468437  0.65179260  0.34259345     2.39800
Eu2629     Eu  0.86482587  0.62968845  0.39276620     2.39600
Eu2630     Eu  0.87365707  0.68180084  0.34109071     2.38400
Eu2631     Eu  0.77564737  0.59962884  0.39424239     2.39900
Eu2632     Eu  0.81437784  0.59285814  0.33968180     2.39800
O2633       O  0.81488928  0.59126938  0.37952216    -0.90600
O2634       O  0.82375356  0.64271649  0.32819602    -0.89500
C2635       C  0.76338675  0.59489142  0.29935887     1.04600
C2636       C  0.85120415  0.55792092  0.36890689     1.03300
C2637       C  0.83340729  0.70408744  0.30205033     1.02700
C2638       C  0.71360234  0.60609560  0.37102663     1.04700
C2639       C  0.81424982  0.57557076  0.43307231     1.03600
C2640       C  0.93538443  0.67328438  0.36239961     1.02500
C2641       C  0.87302012  0.63370984  0.29871648     1.02500
C2642       C  0.74795452  0.52930022  0.36334640     1.05100
H2643       H  0.87951476  0.62685922  0.34651693     0.32500
O2644       O  0.86423763  0.63146662  0.35271173    -1.02800
H2645       H  0.75454869  0.58604629  0.34851565     0.34600
O2646       O  0.77500538  0.60176449  0.35416723    -1.05300
O2647       O  0.72523646  0.91175025  0.71476276    -0.77900
O2648       O  0.68700087  0.77042314  0.63948328    -0.79400
O2649       O  0.76407319  0.85355516  0.67852141    -0.76400
O2650       O  0.70177471  0.87347806  0.63757695    -0.74800
O2651       O  0.64875088  0.85508219  0.63785466    -0.76600
O2652       O  0.75900328  0.82599368  0.71143365    -0.77600
O2653       O  0.72272945  0.82366322  0.63818570    -0.78900
O2654       O  0.74788624  0.90438579  0.68328897    -0.79200
Eu2655     Eu  0.71334942  0.84931206  0.67030742     2.39200
O2656       O  0.66307124  0.80941164  0.65817677    -0.86700
O2657       O  0.71454179  0.85072510  0.71025299    -0.90300
C2658       C  0.74756821  0.92114388  0.69998984     1.04400
C2659       C  0.71071412  0.79531314  0.63059628     1.04200
C2660       C  0.77479196  0.84302270  0.69415821     1.04200
C2661       C  0.67657502  0.87152512  0.62927676     1.02000
H2662       H  0.71692007  0.79438125  0.67912419     0.31800
O2663       O  0.70169368  0.79952939  0.68461687    -0.99100
H2664       H  0.68031317  0.88135430  0.67761325     0.31800
O2665       O  0.67542839  0.86095320  0.68347634    -1.01600
O2666       O  0.60263868  0.70909043  0.68232716    -0.78800
O2667       O  0.64060880  0.85155581  0.75605493    -0.78400
O2668       O  0.70731689  0.75483718  0.71620331    -0.76800
O2669       O  0.59942572  0.78417388  0.63926041    -0.80200
O2670       O  0.61911858  0.86564008  0.68029727    -0.78000
O2671       O  0.73021047  0.83961521  0.75620329    -0.76700
O2672       O  0.62817724  0.74884265  0.75856289    -0.78200
O2673       O  0.56490153  0.76848586  0.71760425    -0.80100
O2674       O  0.68125663  0.76743960  0.75799879    -0.76800
O2675       O  0.57033508  0.79664576  0.68491679    -0.79500
O2676       O  0.67550774  0.72934207  0.68561253    -0.75300
O2677       O  0.71218004  0.87429469  0.75605590    -0.75300
O2678       O  0.65050211  0.89087561  0.71109005    -0.74900
O2679       O  0.61660945  0.74880838  0.63953927    -0.78400
O2680       O  0.58118731  0.71633806  0.71454931    -0.77800
O2681       O  0.60493853  0.79834610  0.75750726    -0.76200
Eu2682     Eu  0.65139948  0.75968049  0.67238816     2.39800
Eu2683     Eu  0.67636259  0.86173020  0.72365322     2.39600
Eu2684     Eu  0.70400124  0.80172307  0.72464975     2.38400
Eu2685     Eu  0.62504540  0.82064981  0.67129872     2.39900
Eu2686     Eu  0.61529895  0.77228489  0.72596382     2.39800
O2687       O  0.62663660  0.82166261  0.71128756    -0.90600
O2688       O  0.65357691  0.76146111  0.71251020    -0.89500
C2689       C  0.58102432  0.69936820  0.69780837     1.04600
C2690       C  0.61675989  0.82682656  0.76485733     1.03300
C2691       C  0.69459268  0.73213742  0.70173563     1.02700
C2692       C  0.60055134  0.76049328  0.63112247     1.04700
C2693       C  0.63095389  0.88774638  0.69520784     1.03600
C2694       C  0.72901325  0.86336377  0.76425411     1.02500
C2695       C  0.65355227  0.75095066  0.76667063     1.02500
C2696       C  0.55445707  0.77945035  0.70209317     1.05100
H2697       H  0.66609762  0.81298581  0.75459196     0.32500
O2698       O  0.66553163  0.81235214  0.73816475    -1.02800
H2699       H  0.59286345  0.75583257  0.68062325     0.34600
O2700       O  0.61366677  0.77133280  0.68583158    -1.05300
O2701       O  0.69084787  0.78153644  0.13909086    -0.77900
O2702       O  0.55518865  0.74481465  0.21760365    -0.79400
O2703       O  0.61247753  0.70640185  0.17860765    -0.76400
O2704       O  0.59186503  0.77094592  0.13952467    -0.74800
O2705       O  0.61141641  0.82439333  0.13968173    -0.76600
O2706       O  0.64333425  0.71145027  0.20944123    -0.77600
O2707       O  0.56038515  0.72351668  0.18457022    -0.78900
O2708       O  0.63739937  0.74728664  0.13871642    -0.79200
Eu2709     Eu  0.61530289  0.75723738  0.17191813     2.39200
O2710       O  0.60528699  0.79573975  0.18606008    -0.86700
O2711       O  0.66532460  0.76675419  0.18386473    -0.90300
C2712       C  0.66517404  0.75876805  0.13054079     1.04400
C2713       C  0.54459360  0.72337278  0.20202722     1.04200
C2714       C  0.62502499  0.69582548  0.19278345     1.04200
C2715       C  0.59466372  0.79663991  0.13110817     1.02000
H2716       H  0.60127114  0.73443283  0.21712407     0.31800
O2717       O  0.61662335  0.75533263  0.21181749    -0.99100
H2718       H  0.65509242  0.80832999  0.14311888     0.31800
O2719       O  0.65511475  0.80760387  0.15954178    -1.01600
O2720       O  0.61847266  0.82979511  0.25873743    -0.78800
O2721       O  0.75588245  0.86451408  0.18015707    -0.78400
O2722       O  0.63031323  0.73968834  0.25646992    -0.76800
O2723       O  0.59491968  0.84536594  0.18208869    -0.80200
O2724       O  0.68239694  0.87276150  0.14123299    -0.78000
O2725       O  0.71605435  0.76534878  0.21544266    -0.76700
O2726       O  0.71811019  0.83922557  0.25824487    -0.78200
O2727       O  0.70027552  0.90606166  0.21820817    -0.80100
O2728       O  0.69914674  0.78588071  0.25718379    -0.76800
O2729       O  0.66962168  0.90101122  0.18717697    -0.79500
O2730       O  0.59641903  0.75858454  0.25841371    -0.75300
O2731       O  0.73867821  0.79578357  0.18368562    -0.75300
O2732       O  0.71665182  0.85425880  0.14011178    -0.74900
O2733       O  0.57178687  0.81422508  0.21351666    -0.78400
O2734       O  0.67180191  0.86461270  0.25922825    -0.77800
O2735       O  0.75080421  0.88699609  0.21262949    -0.76200
Eu2736     Eu  0.60591063  0.79364182  0.22603099     2.39800
Eu2737     Eu  0.70487015  0.81733974  0.17181497     2.39600
Eu2738     Eu  0.66648586  0.76545091  0.22380234     2.38400
Eu2739     Eu  0.64483425  0.84623198  0.17336490     2.39900
Eu2740     Eu  0.69542028  0.85458788  0.22610632     2.39800
O2741       O  0.69429627  0.85565388  0.18609756    -0.90600
O2742       O  0.65596897  0.80386891  0.23793434    -0.89500
C2743       C  0.64379961  0.85315057  0.26730390     1.04600
C2744       C  0.76670257  0.88613083  0.19547847     1.03300
C2745       C  0.60754686  0.74149121  0.26569915     1.02700
C2746       C  0.57234218  0.83178649  0.19683801     1.04700
C2747       C  0.70583180  0.87152601  0.13255397     1.03600
C2748       C  0.73845374  0.77857867  0.20053380     1.02500
C2749       C  0.71564644  0.81332361  0.26600296     1.02500
C2750       C  0.68831956  0.91684508  0.20367899     1.05100
H2751       H  0.72619979  0.82156867  0.21723086     0.32500
O2752       O  0.70564008  0.81635985  0.21176804    -1.02800
H2753       H  0.64047934  0.85945181  0.21944447     0.34600
O2754       O  0.64526807  0.84417034  0.21346247    -1.05300
O2755       O  0.96489134  0.50305440  0.59256714    -0.77900
O2756       O  0.59740225  0.52913712  0.51425910    -0.79400
O2757       O  0.56129605  0.51018726  0.59114221    -0.76400
O2758       O  0.54511880  0.57610803  0.55144357    -0.74800
O2759       O  0.51474966  0.57184420  0.52056025    -0.76600
O2760       O  0.54347476  0.96085175  0.59132597    -0.77600
O2761       O  0.59319216  0.55232631  0.54665658    -0.78900
O2762       O  0.51845592  0.53588253  0.59215733    -0.79200
Eu2763     Eu  0.53839330  0.52349928  0.55888791     2.39200
O2764       O  0.53821747  0.52514603  0.51901396    -0.86700
O2765       O  0.00053941  0.97739685  0.57119120    -0.90300
C2766       C  0.99110334  0.52577360  0.60060498     1.04400
C2767       C  0.60873485  0.55025610  0.52995529     1.04200
C2768       C  0.56087983  0.98890468  0.59935368     1.04200
C2769       C  0.53350990  0.58741316  0.53702430     1.02000
H2770       H  0.56618005  0.48722282  0.55040968     0.31800
O2771       O  0.54861711  0.98648673  0.54460058    -0.99100
H2772       H  0.98534030  0.53171099  0.55338104     0.31800
O2773       O  0.98914940  0.51573224  0.54744313    -1.01600
O2774       O  0.53407220  0.94949359  0.47255920    -0.78800
O2775       O  0.89914538  0.92129941  0.55141790    -0.78400
O2776       O  0.55402121  0.93165683  0.54927654    -0.76800
O2777       O  0.52341111  0.54076389  0.47476748    -0.80200
O2778       O  0.94241477  0.52090789  0.51657419    -0.78000
O2779       O  0.97237732  0.91266974  0.59103345    -0.76700
O2780       O  0.95340612  0.87667381  0.51317480    -0.78200
O2781       O  0.93265982  0.94308388  0.47522951    -0.80100
O2782       O  0.98354390  0.88186393  0.54452514    -0.76800
O2783       O  0.95486492  0.99695244  0.47458973    -0.79500
O2784       O  0.57705599  0.96038500  0.51684658    -0.75300
O2785       O  0.93963363  0.93296151  0.59192995    -0.75300
O2786       O  0.91962765  0.99107194  0.54490169    -0.74900
O2787       O  0.55600529  0.52034917  0.47284644    -0.78400
O2788       O  0.98057328  0.91646552  0.47231528    -0.77800
O2789       O  0.90312036  0.89725736  0.51939049    -0.76200
Eu2790     Eu  0.54765104  0.98618638  0.50451739     2.39800
Eu2791     Eu  0.95107250  0.96809555  0.55908099     2.39600
Eu2792     Eu  0.50848535  0.93698090  0.55835446     2.38400
Eu2793     Eu  0.98882357  0.51688556  0.50764972     2.39900
Eu2794     Eu  0.95807385  0.92812459  0.50550603     2.39800
O2795       O  0.95116512  0.96876637  0.51922696    -0.90600
O2796       O  0.50728318  0.93724139  0.51833601    -0.89500
C2797       C  0.50826263  0.92686259  0.46413346     1.04600
C2798       C  0.88775446  0.89912332  0.53646419     1.03300
C2799       C  0.57536354  0.94256194  0.53370237     1.02700
C2800       C  0.54533772  0.53785185  0.46546043     1.04700
C2801       C  0.92004905  0.50848241  0.53134876     1.03600
C2802       C  0.94990696  0.91536608  0.59978807     1.02500
C2803       C  0.96532359  0.86596609  0.52779509     1.02500
C2804       C  0.93564999  0.96911490  0.46730196     1.05100
H2805       H  0.94356601  0.90737501  0.55134032     0.32500
O2806       O  0.95941188  0.92782960  0.54563317    -1.02800
H2807       H  0.99794593  0.97751269  0.47555078     0.34600
O2808       O  0.99855049  0.97744911  0.49198015    -1.05300
C2809       C  0.51293861  0.55887640  0.94166039    -0.11000
C2810       C  0.51311919  0.57339019  0.92497121    -0.12600
C2811       C  0.95563560  0.60374370  0.87373001    -0.11000
C2812       C  0.93229659  0.60499816  0.86955201    -0.12600
C2813       C  0.65115277  0.73387527  0.78718875    -0.11000
C2814       C  0.65111144  0.72044271  0.80445204    -0.12600
C2815       C  0.72966795  0.68662972  0.86023040    -0.11000
C2816       C  0.70729238  0.68965186  0.85643524    -0.12600
C2817       C  0.59631669  0.65161403  0.86919444    -0.14200
C2818       C  0.56824543  0.64757017  0.86287850    -0.29400
H2819       H  0.59802904  0.63945848  0.88416866     0.14800
H2820       H  0.56650762  0.65972770  0.84791636     0.15400
C2821       C  0.57840348  0.79469439  0.11023079    -0.11000
C2822       C  0.56607833  0.79541925  0.09258975    -0.12600
C2823       C  0.53297267  0.87512805  0.03640604    -0.11000
C2824       C  0.53685718  0.85332204  0.04056827    -0.12600
C2825       C  0.95983994  0.58157034  0.02441358    -0.11000
C2826       C  0.95697941  0.60391216  0.01989119    -0.12600
C2827       C  0.92663502  0.66066966  0.96765004    -0.11000
C2828       C  0.91234713  0.66032110  0.95079071    -0.12600
C2829       C  0.99566374  0.71485659  0.03235021    -0.14200
C2830       C  0.50108857  0.74346400  0.02580737    -0.29400
H2831       H  0.00636739  0.71241973  0.04785725     0.14800
H2832       H  0.49042384  0.74594565  0.01029453     0.15400
C2833       C  0.52196984  0.83750049  0.18930961    -0.11000
C2834       C  0.54495309  0.83533994  0.19382041    -0.12600
C2835       C  0.98511083  0.88269531  0.13231364    -0.11000
C2836       C  0.98532797  0.89737782  0.11590570    -0.12600
C2837       C  0.83337405  0.73602508  0.26616416    -0.11000
C2838       C  0.83474949  0.72221713  0.28264094    -0.12600
C2839       C  0.78998280  0.77486101  0.20861075    -0.11000
C2840       C  0.76628084  0.77569888  0.20384285    -0.12600
C2841       C  0.91315260  0.82068895  0.19078376    -0.14200
C2842       C  0.90121480  0.79758612  0.20618003    -0.29400
H2843       H  0.89848781  0.82952511  0.18410581     0.14800
H2844       H  0.91607163  0.78894805  0.21281685     0.15400
C2845       C  0.67946122  0.88896516  0.60876509    -0.11000
C2846       C  0.68002338  0.90274766  0.59150193    -0.12600
C2847       C  0.62277559  0.93298906  0.54007804    -0.11000
C2848       C  0.60032800  0.93585663  0.53621031    -0.12600
C2849       C  0.81217126  0.55680738  0.45258663    -0.11000
C2850       C  0.81321104  0.54261773  0.46911506    -0.12600
C2851       C  0.87134774  0.51551970  0.52287156    -0.11000
C2852       C  0.89425909  0.51393189  0.52802011    -0.12600
C2853       C  0.76058514  0.97212730  0.52990429    -0.14200
C2854       C  0.73240267  0.96835841  0.52444736    -0.29400
H2855       H  0.76295188  0.96053469  0.54497016     0.14800
H2856       H  0.73004873  0.97997838  0.50939210     0.15400
C2857       C  0.61864430  0.93334316  0.68951372    -0.11000
C2858       C  0.62279876  0.91165613  0.69314422    -0.12600
C2859       C  0.59090707  0.99188711  0.63747860    -0.11000
C2860       C  0.57785429  0.99161101  0.61997348    -0.12600
C2861       C  0.70097387  0.70705895  0.70463128    -0.11000
C2862       C  0.70341153  0.68445179  0.70890739    -0.12600
C2863       C  0.73295416  0.62741816  0.76096841    -0.11000
C2864       C  0.74765679  0.62885866  0.77787825    -0.12600
C2865       C  0.65596193  0.54414887  0.70361197    -0.14200
C2866       C  0.66101648  0.57263069  0.69735769    -0.29400
H2867       H  0.66716063  0.54179465  0.71887468     0.14800
H2868       H  0.64982835  0.57502387  0.68210401     0.15400
C2869       C  0.85479147  0.50634416  0.37708012    -0.11000
C2870       C  0.85382652  0.52994142  0.37209797    -0.12600
C2871       C  0.91620887  0.96770580  0.44879520    -0.11000
C2872       C  0.90108045  0.96810842  0.43286692    -0.12600
C2873       C  0.79382059  0.75105261  0.36307200    -0.11000
C2874       C  0.79209917  0.77432063  0.35814938    -0.12600
C2875       C  0.74692721  0.81401509  0.30254494    -0.11000
C2876       C  0.73270725  0.81448411  0.28602174    -0.12600
C2877       C  0.81659650  0.88640898  0.35778485    -0.14200
C2878       C  0.83614399  0.89650587  0.37547104    -0.29400
H2879       H  0.81148372  0.90289250  0.34910006     0.14800
H2880       H  0.84117518  0.88002836  0.38425245     0.15400
C2881       C  0.91403121  0.99143609  0.13617128    -0.11000
C2882       C  0.92867831  0.99128151  0.11966019    -0.12600
C2883       C  0.79861852  0.91198876  0.19228150    -0.11000
C2884       C  0.82411384  0.93445374  0.18732848    -0.12600
C2885       C  0.90100593  0.63122591  0.26184275    -0.11000
C2886       C  0.88759679  0.63208374  0.27846273    -0.12600
C2887       C  0.98803143  0.67300355  0.20931371    -0.11000
C2888       C  0.51331636  0.69631653  0.20501421    -0.12600
C2889       C  0.91531391  0.55263656  0.19043452    -0.14200
C2890       C  0.90239286  0.56088837  0.20677904    -0.29400
H2891       H  0.93787073  0.57028177  0.18331704     0.14800
H2892       H  0.87975045  0.54334561  0.21383480     0.15400
C2893       C  0.96662823  0.67901502  0.35853141    -0.11000
C2894       C  0.99121196  0.68060118  0.35390213    -0.12600
C2895       C  0.59287001  0.72304356  0.28576123    -0.11000
C2896       C  0.57850618  0.70893341  0.30257263    -0.12600
C2897       C  0.55864070  0.55495212  0.44485967    -0.11000
C2898       C  0.57059331  0.56810389  0.42727117    -0.12600
C2899       C  0.65629222  0.59601556  0.37593789    -0.11000
C2900       C  0.68163977  0.59858882  0.37316127    -0.12600
C2901       C  0.56125355  0.63961030  0.36748369    -0.14200
C2902       C  0.58524434  0.63553710  0.36160073    -0.29400
H2903       H  0.54743450  0.62802447  0.38259538     0.14800
H2904       H  0.59904261  0.64711740  0.34648040     0.15400
C2905       C  0.82593579  0.93580808  0.04571810    -0.11000
C2906       C  0.85099469  0.93837122  0.04097192    -0.12600
C2907       C  0.72149743  0.89060483  0.11271847    -0.11000
C2908       C  0.73645392  0.90515677  0.09608911    -0.12600
C2909       C  0.76872237  0.56913056  0.95480596    -0.08000
C2910       C  0.75585513  0.55592833  0.97229962    -0.12600
C2911       C  0.64114175  0.51997200  0.02521093    -0.11000
C2912       C  0.66699902  0.52372478  0.02230221    -0.12600
C2913       C  0.73157159  0.98036789  0.03650540    -0.14200
C2914       C  0.75608985  0.97668543  0.03158579    -0.29400
H2915       H  0.71662178  0.96796102  0.05098783     0.14800
H2916       H  0.77095929  0.98901871  0.01704952     0.15400
C2917       C  0.72551016  0.79167630  0.61067806    -0.11000
C2918       C  0.74002279  0.79161198  0.59415774    -0.12600
C2919       C  0.85595267  0.87350102  0.53999532    -0.11000
C2920       C  0.83058464  0.85067880  0.54449279    -0.12600
C2921       C  0.66628160  0.59773685  0.52515662    -0.11000
C2922       C  0.64089347  0.57463267  0.52808927    -0.12600
C2923       C  0.76279149  0.65443395  0.45582605    -0.11000
C2924       C  0.75095908  0.65650997  0.47303722    -0.12600
C2925       C  0.75864101  0.73901849  0.53085041    -0.14200
C2926       C  0.73468953  0.71032176  0.53670648    -0.29400
H2927       H  0.77295270  0.74165328  0.51608499     0.14800
H2928       H  0.72051796  0.70765984  0.55156519     0.15400
C2929       C  0.90889810  0.73759233  0.75930278    -0.11000
C2930       C  0.89469539  0.72303866  0.77600718    -0.12600
C2931       C  0.52294289  0.77309679  0.70487833    -0.11000
C2932       C  0.99766601  0.77017263  0.70903643    -0.12600
C2933       C  0.83162128  0.85235193  0.68713591    -0.11000
C2934       C  0.80638796  0.84946404  0.69130261    -0.12600
C2935       C  0.93466301  0.89732780  0.61990810    -0.11000
C2936       C  0.92026683  0.88316911  0.63670783    -0.12600
C2937       C  0.90263505  0.81329719  0.70147975    -0.14200
C2938       C  0.92689860  0.80964659  0.69587057    -0.29400
H2939       H  0.88834720  0.80117591  0.71630087     0.14800
H2940       H  0.94118866  0.82181314  0.68106048     0.15400
C2941       C  0.65895015  0.52422117  0.87221670    -0.11000
C2942       C  0.68496801  0.54678646  0.86981793    -0.12600
C2943       C  0.56737257  0.95875932  0.92563825    -0.11000
C2944       C  0.55358555  0.95938360  0.94241151    -0.12600
C2945       C  0.99798594  0.76909292  0.84972761    -0.11000
C2946       C  0.97292531  0.74602047  0.85407846    -0.12600
C2947       C  0.58776929  0.83179667  0.80098683    -0.11000
C2948       C  0.60193230  0.83100254  0.78451204    -0.12600
C2949       C  0.56497384  0.88048895  0.86531118    -0.14200
C2950       C  0.58860336  0.90979735  0.86064433    -0.29400
H2951       H  0.54999060  0.87641869  0.87995259     0.14800
H2952       H  0.60361935  0.91383504  0.84602838     0.15400
C2953       C  0.73310869  0.56722726  0.26142436    -0.11000
C2954       C  0.74616430  0.58106782  0.27867238    -0.12600
C2955       C  0.69752570  0.97375488  0.21113938    -0.11000
C2956       C  0.69490847  0.94854063  0.20699945    -0.12600
C2957       C  0.59002759  0.55202613  0.13523664    -0.11000
C2958       C  0.57623948  0.53916832  0.11798609    -0.12600
C2959       C  0.61951356  0.66464289  0.18908256    -0.11000
C2960       C  0.61810754  0.63997576  0.18508780    -0.12600
C2961       C  0.66116910  0.57214888  0.19975988    -0.14200
C2962       C  0.66578408  0.54820208  0.19483382    -0.29400
H2963       H  0.67271279  0.58684328  0.21448001     0.14800
H2964       H  0.65430085  0.53351098  0.18010107     0.15400
C2965       C  0.70177057  0.97296386  0.35308241    -0.11000
C2966       C  0.72382583  0.49707567  0.36037467    -0.12600
C2967       C  0.64117303  0.88254560  0.30402654    -0.11000
C2968       C  0.64097019  0.86812941  0.28739015    -0.12600
C2969       C  0.51055813  0.91207901  0.44385908    -0.11000
C2970       C  0.51104221  0.89885690  0.42680679    -0.12600
C2971       C  0.92867580  0.78390062  0.37414816    -0.11000
C2972       C  0.95124169  0.80958857  0.37760903    -0.12600
C2973       C  0.56172048  0.88052664  0.36194563    -0.14200
C2974       C  0.59079511  0.90331606  0.36783546    -0.29400
H2975       H  0.55827807  0.86658216  0.34680854     0.14800
H2976       H  0.59425242  0.91727194  0.38296857     0.15400
C2977       C  0.60659900  0.62021690  0.03551852    -0.11000
C2978       C  0.62936564  0.64582285  0.03985634    -0.12600
C2979       C  0.66720835  0.74468650  0.11016766    -0.11000
C2980       C  0.66802310  0.73169305  0.09330156    -0.12600
C2981       C  0.82296954  0.72556499  0.96809107    -0.11000
C2982       C  0.82365820  0.71247494  0.95123789    -0.12600
C2983       C  0.88554722  0.83346273  0.02842648    -0.11000
C2984       C  0.86253050  0.80804817  0.02419852    -0.12600
C2985       C  0.75079901  0.72119067  0.02379237    -0.14200
C2986       C  0.74088524  0.73332654  0.03958513    -0.29400
H2987       H  0.73414453  0.69859625  0.01623042     0.14800
H2988       H  0.75751151  0.75601467  0.04704199     0.15400
C2989       C  0.56900900  0.73205450  0.59390565    -0.11000
C2990       C  0.58274217  0.74580078  0.61092751    -0.12600
C2991       C  0.54014968  0.61917401  0.54036151    -0.11000
C2992       C  0.54182748  0.64412819  0.54396767    -0.12600
C2993       C  0.95655428  0.80907496  0.51988714    -0.11000
C2994       C  0.95912824  0.83427743  0.52433065    -0.12600
C2995       C  0.92326537  0.71849604  0.47053352    -0.11000
C2996       C  0.90808679  0.70386442  0.45412192    -0.12600
C2997       C  0.99653783  0.73816619  0.53345913    -0.14200
C2998       C  0.50084464  0.71407335  0.52813769    -0.29400
H2999       H  0.00831348  0.75250877  0.54827705     0.14800
H3000       H  0.48918166  0.69974769  0.51329277     0.15400
C3001       C  0.87407750  0.78900572  0.86787184    -0.11000
C3002       C  0.87694835  0.81436704  0.87194828    -0.12600
C3003       C  0.90196569  0.89913322  0.92507851    -0.11000
C3004       C  0.91399773  0.91235952  0.94270646    -0.12600
C3005       C  0.74754502  0.87900738  0.78412144    -0.11000
C3006       C  0.76191793  0.89325598  0.80089924    -0.12600
C3007       C  0.79039674  0.97845412  0.85470920    -0.11000
C3008       C  0.78619953  0.50122639  0.86009565    -0.12600
C3009       C  0.83838543  0.88631717  0.85770670    -0.14200
C3010       C  0.83356974  0.90969243  0.86410655    -0.29400
H3011       H  0.82732868  0.87302574  0.84234909     0.14800
H3012       H  0.84469471  0.92294830  0.87946424     0.15400
C3013       C  0.53087649  0.64197266  0.69118201    -0.11000
C3014       C  0.55380166  0.66768013  0.69541446    -0.12600
C3015       C  0.99025815  0.54170228  0.62045273    -0.11000
C3016       C  0.99075396  0.55611734  0.63695923    -0.12600
C3017       C  0.79768038  0.97731377  0.70867296    -0.11000
C3018       C  0.77493331  0.95223644  0.70328532    -0.12600
C3019       C  0.83540340  0.57370063  0.77924059    -0.11000
C3020       C  0.83595320  0.55966799  0.76291047    -0.12600
C3021       C  0.90916071  0.56452192  0.70812587    -0.14200
C3022       C  0.92013264  0.55195959  0.69353036    -0.29400
H3023       H  0.92488164  0.58816210  0.71455456     0.14800
H3024       H  0.90435270  0.52831057  0.68713123     0.15400
loop_ 
_geom_bond_atom_site_label_1 
_geom_bond_atom_site_label_2 
_geom_bond_distance 
_geom_bond_site_symmetry_2 
_ccdc_geom_bond_type 
C1            N2   1.366       .  A
C1            N6   1.359       .  A
C1         C1505   1.449   1_545  S
N2            C3   1.368       .  A
C3            N4   1.348       .  A
C3          C753   1.475       .  S
N4            C5   1.347       .  A
C5            N6   1.357       .  A
C5          C752   1.423       .  S
C7           N12   1.359       .  A
C7         N1520   1.367   1_455  A
C7          C745   1.451       .  S
N8            C9   1.369       .  A
N8         C1519   1.367       .  A
C9           N10   1.349       .  A
C9          C754   1.475       .  S
N10          C11   1.347       .  A
C11        N1524   1.356       .  A
C11         C748   1.425       .  S
N12        C1523   1.356   1_455  A
C13          N14   1.356       .  A
C13          N18   1.359       .  A
C13         C739   1.436       .  S
N14          C15   1.357       .  A
C15          N16   1.359       .  A
C15         C742   1.475       .  S
N16          C17   1.356       .  A
C17          N18   1.359       .  A
C17         C738   1.438       .  S
C19          N20   1.356       .  A
C19          N24   1.357       .  A
C19         C734   1.436       .  S
N20          C21   1.358       .  A
C21          N22   1.360       .  A
C21         C741   1.475       .  S
N22          C23   1.357       .  A
C23          N24   1.358       .  A
C23         C735   1.437       .  S
C25          N26   1.357       .  A
C25          N30   1.360       .  A
C25         C725   1.444       .  S
N26          C27   1.359       .  A
C27          N28   1.362       .  A
C27         C729   1.482       .  S
N28          C29   1.360       .  A
C29          N30   1.361       .  A
C29         C727   1.444       .  S
C31          N32   1.358       .  A
C31          N36   1.358       .  A
C31         C724   1.442       .  S
N32          C33   1.359       .  A
C33          N34   1.360       .  A
C33         C721   1.444       .  S
N34          C35   1.363       .  A
C35          N36   1.360       .  A
C35         C730   1.483   1_455  S
C37          N38   1.354   1_554  A
C37          N42   1.355       .  A
C37         C716   1.430       .  S
N38          C39   1.355       .  A
C39          N40   1.359   1_556  A
C39         C713   1.436       .  S
N40          C41   1.363       .  A
C41          N42   1.357       .  A
C41         C717   1.478       .  S
C43          N44   1.360       .  A
C43          N48   1.354       .  A
C43         C710   1.439       .  S
N44          C45   1.361       .  A
C45          N46   1.360       .  A
C45         C712   1.446       .  S
N46          C47   1.363       .  A
C47          N48   1.356       .  A
C47         C718   1.478       .  S
C49          N54   1.359       .  A
C49        N1562   1.349       .  A
C49         C704   1.429       .  S
N50          C51   1.351       .  A
N50        C1561   1.349   1_455  A
C51          N52   1.367       .  A
C51         C705   1.477       .  S
N52        C1565   1.365       .  A
C53          N54   1.360       .  A
C53        N1564   1.365       .  A
C53        C2214   1.450       .  S
C55          N56   1.364       .  A
C55          N60   1.359       .  A
C55         C699   1.448       .  S
N56          C57   1.367       .  A
C57          N58   1.351       .  A
C57         C706   1.477       .  S
N58          C59   1.350       .  A
C59          N60   1.358       .  A
C59         C697   1.429       .  S
C61          N62   1.358       .  A
C61          N66   1.354       .  A
C61         C692   1.435       .  S
N62          C63   1.360       .  A
C63          N64   1.361       .  A
C63         C693   1.477       .  S
N64          C65   1.356       .  A
C65          N66   1.355       .  A
C65         C689   1.431       .  S
C67          N68   1.359       .  A
C67          N72   1.357       .  A
C67         C685   1.438       .  S
N68          C69   1.358       .  A
C69          N70   1.356       .  A
C69        C1443   1.438   1_545  S
N70          C71   1.358       .  A
C71          N72   1.360       .  A
C71         C694   1.476       .  S
C73          N74   1.359       .  A
C73          N78   1.354       .  A
C73        C2189   1.438   1_455  S
N74          C75   1.361       .  A
C75          N76   1.359       .  A
C75         C679   1.443       .  S
N76          C77   1.362       .  A
C77          N78   1.356       .  A
C77         C681   1.476       .  S
C79          N80   1.357       .  A
C79         N840   1.354       .  A
C79        C1429   1.431       .  S
N80          C81   1.358       .  A
C81          N82   1.362       .  A
C81         C682   1.478       .  S
N82          C83   1.357       .  A
C83         N840   1.354       .  A
C83         C675   1.433       .  S
N84         C835   1.357       .  A
N84         C839   1.359       .  A
C85          N86   1.355       .  A
C85          N90   1.360       .  A
C85         C668   1.439       .  S
N86          C87   1.359       .  A
C87          N88   1.355       .  A
C87         C669   1.471       .  S
N88          C89   1.355       .  A
C89          N90   1.360       .  A
C89         C665   1.436       .  S
C91          N92   1.359       .  A
C91          N96   1.354       .  A
C91         C664   1.435       .  S
N92          C93   1.360       .  A
C93          N94   1.357       .  A
C93         C661   1.440       .  S
N94          C95   1.360       .  A
C95          N96   1.355       .  A
C95         C670   1.471       .  S
C97          N98   1.352       .  A
C97         N102   1.354       .  A
C97         C653   1.427       .  S
N98          C99   1.354       .  A
C99         N100   1.367       .  A
C99         C658   1.479       .  S
N100        C101   1.364       .  A
C101        N102   1.356       .  A
C101        C656   1.442       .  S
C103        N104   1.361       .  A
C103        N108   1.353       .  A
C103        C652   1.439       .  S
N104        C105   1.362       .  A
C105        N106   1.363       .  A
C105        C650   1.452       .  S
N106        C107   1.366       .  A
C107        N108   1.354       .  A
C107        C657   1.480       .  S
C109        N114   1.356   1_554  A
C109        N866   1.358       .  A
C109        C644   1.437       .  S
N110        C111   1.358       .  A
N110        C865   1.357       .  A
C111        N868   1.361       .  A
C111        C645   1.478       .  S
N112        C113   1.357   1_554  A
N112        C867   1.361       .  A
C113        N114   1.356       .  A
C113        C642   1.435       .  S
C115        N116   1.356       .  A
C115        N120   1.358       .  A
C115        C637   1.439       .  S
N116        C117   1.358       .  A
C117        N118   1.361       .  A
C117        C646   1.477       .  S
N118        C119   1.358       .  A
C119        N120   1.359       .  A
C119        C640   1.440       .  S
C121        N122   1.355       .  A
C121        N126   1.355       .  A
C121        C631   1.433       .  S
N122        C123   1.356       .  A
C123        N124   1.360       .  A
C123        C630   1.438       .  S
N124        C125   1.363       .  A
C125        N126   1.357       .  A
C125        C634   1.477       .  S
C127        N128   1.355       .  A
C127        N132   1.357       .  A
C127       C2138   1.434   1_455  S
N128        C129   1.357       .  A
C129        N130   1.362       .  A
C129        C633   1.478       .  S
N130        C131   1.359       .  A
C131        N132   1.357       .  A
C131        C628   1.439       .  S
C133        N134   1.360       .  A
C133        N138   1.361       .  A
C133        C617   1.446       .  S
N134        C135   1.363       .  A
C135        N136   1.358       .  A
C135        C622   1.482       .  S
N136        C137   1.357       .  A
C137        N138   1.360       .  A
C137        C619   1.442       .  S
C139        N144   1.359       .  A
C139        N896   1.346       .  A
C139        C613   1.427       .  S
N140        C141   1.363       .  A
N140        C895   1.361   1_545  A
C141        N898   1.357   1_545  A
C141        C621   1.481       .  S
N142        C143   1.367       .  A
N142        C897   1.368       .  A
C143        N144   1.362       .  A
C143        C616   1.453       .  S
C145        N146   1.355       .  A
C145        N150   1.344       .  A
C145        C607   1.420       .  S
N146        C147   1.359       .  A
C147        N148   1.374       .  A
C147        C606   1.458       .  S
N148        C149   1.375       .  A
C149        N150   1.346       .  A
C149        C609   1.482       .  S
C151        N152   1.372       .  A
C151        N912   1.359       .  A
C151       C1357   1.457       .  S
N152        C153   1.374       .  A
C153        N154   1.347       .  A
C153        C610   1.482       .  S
N154        C155   1.345       .  A
C155        N912   1.356       .  A
C155        C604   1.422       .  S
N156        C907   1.362       .  A
N156        C911   1.359       .  A
C157        N158   1.353       .  A
C157        N162   1.356       .  A
C157        C594   1.430       .  S
N158        C159   1.354       .  A
C159        N160   1.362       .  A
C159        C598   1.472       .  S
N160        C161   1.358       .  A
C161        N162   1.357       .  A
C161        C595   1.437       .  S
C163        N164   1.354       .  A
C163        N168   1.354       .  A
C163        C589   1.427       .  S
N164        C921   1.356       .  A
C165        N166   1.362       .  A
C165        N920   1.355   1_545  A
C165        C597   1.473       .  S
N166        C923   1.357   1_545  A
C167        N168   1.355       .  A
C167        N922   1.360       .  A
C167        C591   1.436       .  S
C169        N170   1.361       .  A
C169        N174   1.356   1_545  A
C169        C583   1.442       .  S
N170        C171   1.362       .  A
C171        N172   1.358       .  A
C171        C582   1.444       .  S
N172        C173   1.361   1_545  A
C173        N174   1.357       .  A
C173       C1341   1.477       .  S
C175        N176   1.357       .  A
C175        N180   1.359       .  A
C175        C579   1.439       .  S
N176        C177   1.358       .  A
C177        N178   1.358       .  A
C177        C586   1.474       .  S
N178        C179   1.354       .  A
C179        N180   1.359       .  A
C179        C578   1.435       .  S
C181        N182   1.358       .  A
C181        N186   1.358       .  A
C181        C571   1.441       .  S
N182        C183   1.359       .  A
C183        N184   1.363       .  A
C183        C574   1.483       .  S
N184        C185   1.360       .  A
C185        N186   1.359       .  A
C185        C569   1.444       .  S
C187        N192   1.357       .  A
C187       N1700   1.356   1_455  A
C187        C565   1.439       .  S
N188        C189   1.359       .  A
N188       C1699   1.356       .  A
C189        N190   1.363       .  A
C189        C573   1.482       .  S
N190        C191   1.361       .  A
C191       N1704   1.359       .  A
C191        C567   1.443       .  S
N192       C1703   1.358   1_455  A
C193        N194   1.356       .  A
C193        N198   1.358   1_554  A
C193        C558   1.434       .  S
N194        C195   1.357       .  A
C195        N196   1.361       .  A
C195        C561   1.476       .  S
N196        C197   1.356   1_554  A
C197        N198   1.358       .  A
C197        C559   1.438       .  S
C199        N200   1.357       .  A
C199        N204   1.353       .  A
C199        C556   1.432       .  S
N200        C201   1.358       .  A
C201        N202   1.360       .  A
C201        C554   1.441       .  S
N202        C203   1.362       .  A
C203        N204   1.355       .  A
C203        C562   1.473       .  S
C205        N206   1.359       .  A
C205        N210   1.357       .  A
C205        C548   1.439       .  S
N206        C207   1.359       .  A
C207        N208   1.356       .  A
C207        C546   1.439       .  S
N208        C209   1.360       .  A
C209        N210   1.358       .  A
C209        C549   1.477       .  S
C211        N212   1.355       .  A
C211       N1728   1.356       .  A
C211        C543   1.432       .  S
N212        C213   1.355       .  A
C213       N1726   1.358       .  A
C213       C2054   1.434       .  S
N214        C215   1.361       .  A
N214       C1725   1.358       .  A
C215        N216   1.358       .  A
C215        C550   1.476       .  S
N216       C1723   1.356   1_455  A
O217        C228   1.292       .  A
O217       Eu253   2.473       .  S
O218        C229   1.287       .  A
O218       Eu252   2.446       .  S
O219        C230   1.289       .  A
O219       Eu225   2.459       .  S
O220        C231   1.291       .  A
O220       Eu225   2.467       .  S
O221        C231   1.289       .  A
O221       Eu255   2.454       .  S
O222        C230   1.293       .  A
O222       Eu254   2.475       .  S
O223        C229   1.290       .  A
O223       Eu225   2.463       .  S
O224        C228   1.282       .  A
O224       Eu225   2.415       .  S
Eu225       O235   2.361       .  S
Eu225       O227   2.354       .  S
Eu225       O226   2.339       .  S
Eu225       O233   2.349       .  S
O226       Eu255   2.360       .  S
O226       Eu252   2.347       .  S
O227       Eu253   2.342       .  S
O227       Eu254   2.343       .  S
C228        C751   1.422       .  S
C229        C674   1.433       .  S
C230        C740   1.443       .  S
C231        C596   1.436       .  S
H232        O233   0.966       .  S
O233       Eu254   2.359       .  S
O233       Eu252   2.359       .  S
H234        O235   0.966       .  S
O235       Eu253   2.350       .  S
O235       Eu255   2.351       .  S
O236        C259   1.288       .  A
O236       Eu252   2.449       .  S
O237        C260   1.288       .  A
O237       Eu253   2.451       .  S
O238        C261   1.291       .  A
O238       Eu254   2.463       .  S
O239        C262   1.289       .  A
O239       Eu255   2.454       .  S
O240        C263   1.293       .  A
O240       Eu255   2.482       .  S
O241        C264   1.289       .  A
O241       Eu254   2.458       .  S
O242        C265   1.292       .  A
O242       Eu256   2.473       .  S
O243        C266   1.290       .  A
O243       Eu256   2.458       .  S
O244        C265   1.289       .  A
O244       Eu254   2.454       .  S
O245        C266   1.291       .  A
O245       Eu255   2.465       .  S
O246        C261   1.289       .  A
O246       Eu252   2.456       .  S
O247        C264   1.289       .  A
O247       Eu253   2.454       .  S
O248        C263   1.287       .  A
O248       Eu253   2.446       .  S
O249        C262   1.292       .  A
O249       Eu252   2.471       .  S
O250        C259   1.291       .  A
O250       Eu256   2.469       .  S
O251        C260   1.293       .  A
O251       Eu256   2.473       .  S
Eu252       O270   2.351       .  S
Eu252       O258   2.353       .  S
Eu253       O257   2.355       .  S
Eu253       O268   2.358       .  S
Eu254       O268   2.360       .  S
Eu254       O258   2.355       .  S
Eu255       O257   2.346       .  S
Eu255       O270   2.360       .  S
Eu256       O257   2.356       .  S
Eu256       O268   2.355       .  S
Eu256       O270   2.358       .  S
Eu256       O258   2.351       .  S
C259        C714   1.436       .  S
C260        C678   1.438       .  S
C261        C641   1.435       .  S
C262        C547   1.438       .  S
C263        C662   1.440       .  S
C264        C544   1.431       .  S
C265        C560   1.437       .  S
C266        C733   1.435       .  S
H267        O268   0.965       .  S
H269        O270   0.965       .  S
O271        C282   1.291       .  A
O271       Eu307   2.469   1_556  S
O272        C283   1.287       .  A
O272       Eu306   2.443       .  S
O273        C284   1.289       .  A
O273      Eu1791   2.456   1_456  S
O274        C285   1.289       .  A
O274       Eu279   2.454       .  S
O275        C285   1.287       .  A
O275       Eu309   2.447       .  S
O276        C284   1.289       .  A
O276      Eu1064   2.458   1_556  S
O277        C283   1.291       .  A
O277      Eu1791   2.465   1_455  S
O278        C282   1.289       .  A
O278       Eu279   2.457   1_556  S
Eu279      O1785   2.456   1_554  S
Eu279      O1789   2.464       .  S
Eu279       O289   2.360       .  S
Eu279       O281   2.350   1_554  S
Eu279       O280   2.352       .  S
Eu279      O1799   2.355       .  S
O280       Eu309   2.339       .  S
O280      Eu1818   2.355       .  S
O281       Eu307   2.352   1_556  S
O281      Eu2576   2.353   1_556  S
C282        C736   1.437       .  S
C283        C555   1.431       .  S
C284        C676   1.433       .  S
C285        C715   1.428       .  S
H286        O287   0.966       .  S
O287       Eu306   2.362       .  S
O287      Eu1791   2.355   1_455  S
O287      Eu1064   2.355       .  S
H288        O289   0.966       .  S
O289       Eu307   2.352       .  S
O289       Eu309   2.349       .  S
O290       C1069   1.291       .  A
O290       Eu306   2.467       .  S
O291        C314   1.289       .  A
O291      Eu1063   2.457   1_545  S
O292        C315   1.290       .  A
O292       Eu308   2.464       .  S
O293        C316   1.291       .  A
O293       Eu309   2.468       .  S
O294        C317   1.288       .  A
O294       Eu309   2.453       .  S
O295        C318   1.289       .  A
O295       Eu308   2.456   1_556  S
O296        C319   1.288       .  A
O296       Eu310   2.449       .  S
O297       C1076   1.296   1_545  A
O297      Eu1822   2.495       .  S
O298        C319   1.294       .  A
O298       Eu308   2.481       .  S
O299        C320   1.281       .  A
O299       Eu309   2.412       .  S
O300       C1071   1.290       .  A
O300       Eu306   2.459       .  S
O301       C1830   1.290       .  A
O301      Eu1063   2.462   1_546  S
O302        C317   1.291       .  A
O302       Eu307   2.469       .  S
O303       C1828   1.290   1_455  A
O303       Eu306   2.462       .  S
O304        C313   1.289       .  A
O304       Eu310   2.456       .  S
O305        C314   1.290       .  A
O305      Eu1822   2.459       .  S
Eu306      O1792   2.355   1_455  S
Eu306      O1836   2.346   1_455  S
Eu306      O1068   2.347       .  S
Eu307      O1047   2.448       .  S
Eu307      O1057   2.446   1_554  S
Eu307       O311   2.344       .  S
Eu307      O2590   2.367       .  S
Eu308      O1032   2.468   1_544  S
Eu308       O322   2.356       .  S
Eu308       O312   2.351       .  S
Eu308      O2549   2.357   1_444  S
Eu308      O1043   2.355   1_545  S
Eu309       O311   2.354       .  S
Eu309       O324   2.352       .  S
Eu310      O1809   2.495   1_455  S
Eu310      O1817   2.459   1_455  S
Eu310       O322   2.366       .  S
Eu310       O312   2.364       .  S
Eu310      O2579   2.345   1_445  S
Eu310      O2592   2.348   1_445  S
O311      Eu2578   2.350       .  S
O312      Eu1062   2.337   1_545  S
C313        C690   1.431       .  S
C313       O1046   1.288       .  A
C314        C557   1.433       .  S
C315        C643   1.437       .  S
C315       O1056   1.288   1_545  A
C316        C568   1.442       .  S
C316       O1815   1.290       .  A
C317        C638   1.438       .  S
C318        C541   1.434       .  S
C318       O1813   1.290   1_455  A
C319        C709   1.438       .  S
C320        C614   1.427       .  S
C320       O1053   1.296       .  A
H321        O322   0.965       .  S
O322      Eu2575   2.363   1_445  S
H323        O324   0.965       .  S
O324      Eu1818   2.346       .  S
O324      Eu2578   2.358       .  S
O325        C336   1.294       .  A
O325       Eu361   2.483       .  S
O326        C337   1.297       .  A
O326       Eu360   2.503       .  S
O327        C338   1.284       .  A
O327       Eu333   2.429       .  S
O328        C339   1.289       .  A
O328       Eu333   2.460       .  S
O329        C339   1.292       .  A
O329       Eu363   2.473       .  S
O330        C338   1.293       .  A
O330       Eu362   2.474       .  S
O331        C337   1.291       .  A
O331       Eu333   2.473       .  S
O332        C336   1.289       .  A
O332       Eu333   2.455       .  S
Eu333       O343   2.355       .  S
Eu333       O335   2.362       .  S
Eu333       O334   2.349       .  S
Eu333       O341   2.355       .  S
O334       Eu363   2.367       .  S
O334       Eu360   2.360       .  S
O335       Eu361   2.359       .  S
O335       Eu362   2.360       .  S
C336        C728   1.443       .  S
C337        C605   1.459       .  S
C338        C703   1.428       .  S
C339        C655   1.443       .  S
H340        O341   0.965       .  S
O341       Eu362   2.348       .  S
O341       Eu360   2.349       .  S
H342        O343   0.966       .  S
O343       Eu361   2.360       .  S
O343       Eu363   2.352       .  S
O344        C367   1.294       .  A
O344       Eu360   2.480       .  S
O345        C368   1.294       .  A
O345       Eu361   2.486       .  S
O346        C369   1.293       .  A
O346       Eu362   2.479       .  S
O347        C370   1.290       .  A
O347       Eu363   2.458       .  S
O348        C371   1.295       .  A
O348       Eu363   2.486       .  S
O349        C372   1.289       .  A
O349       Eu362   2.455       .  S
O350        C373   1.294       .  A
O350       Eu364   2.485       .  S
O351        C374   1.287       .  A
O351       Eu364   2.444       .  S
O352        C373   1.289       .  A
O352       Eu362   2.458       .  S
O353        C374   1.293       .  A
O353       Eu363   2.478       .  S
O354        C369   1.290       .  A
O354       Eu360   2.459       .  S
O355        C372   1.290       .  A
O355       Eu361   2.460       .  S
O356        C371   1.288       .  A
O356       Eu361   2.449       .  S
O357        C370   1.290       .  A
O357       Eu360   2.458       .  S
O358        C367   1.288       .  A
O358       Eu364   2.448       .  S
O359        C368   1.295       .  A
O359       Eu364   2.491       .  S
Eu360       O378   2.363       .  S
Eu360       O366   2.361       .  S
Eu361       O365   2.348       .  S
Eu361       O376   2.366       .  S
Eu362       O376   2.373       .  S
Eu362       O366   2.349       .  S
Eu363       O365   2.351       .  S
Eu363       O378   2.361       .  S
Eu364       O365   2.350       .  S
Eu364       O376   2.348       .  S
Eu364       O378   2.371       .  S
Eu364       O366   2.358       .  S
C367        C686   1.437       .  S
C368        C602   1.462       .  S
C369        C570   1.444       .  S
C370        C632   1.433       .  S
C371        C581   1.442       .  S
C372        C625   1.432       .  S
C373        C618   1.446       .  S
C374        C698   1.435   1_545  S
H375        O376   0.966       .  S
H377        O378   0.965       .  S
O379        C390   1.294       .  A
O379       Eu415   2.485       .  S
O380        C391   1.295       .  A
O380       Eu414   2.491       .  S
O381        C392   1.287       .  A
O381       Eu387   2.447       .  S
O382        C393   1.292       .  A
O382       Eu387   2.472       .  S
O383        C393   1.286       .  A
O383       Eu417   2.442       .  S
O384        C392   1.292       .  A
O384       Eu416   2.472       .  S
O385        C391   1.290       .  A
O385       Eu387   2.464       .  S
O386        C390   1.291       .  A
O386       Eu387   2.469       .  S
Eu387       O397   2.359       .  S
Eu387       O389   2.355       .  S
Eu387       O388   2.350       .  S
Eu387       O395   2.361       .  S
O388       Eu417   2.349       .  S
O388       Eu414   2.352       .  S
O389       Eu415   2.350       .  S
O389       Eu416   2.344       .  S
C390        C750   1.451       .  S
C391        C649   1.451       .  S
C392        C666   1.435       .  S
C393        C577   1.434       .  S
H394        O395   0.965       .  S
O395       Eu416   2.362       .  S
O395       Eu414   2.359       .  S
H396        O397   0.966       .  S
O397       Eu415   2.363       .  S
O397       Eu417   2.371       .  S
O398        C421   1.294       .  A
O398       Eu414   2.485       .  S
O399        C422   1.293       .  A
O399       Eu415   2.480       .  S
O400        C423   1.287       .  A
O400       Eu416   2.444       .  S
O401        C424   1.293       .  A
O401       Eu417   2.478       .  S
O402        C425   1.288       .  A
O402       Eu417   2.451       .  S
O403        C426   1.293       .  A
O403       Eu416   2.482       .  S
O404        C427   1.292       .  A
O404       Eu418   2.473       .  S
O405        C428   1.287       .  A
O405       Eu418   2.444       .  S
O406        C427   1.288       .  A
O406       Eu416   2.451       .  S
O407        C428   1.292       .  A
O407       Eu417   2.469       .  S
O408        C423   1.291       .  A
O408       Eu414   2.460       .  S
O409        C426   1.286       .  A
O409       Eu415   2.441       .  S
O410        C425   1.288       .  A
O410       Eu415   2.451       .  S
O411        C424   1.290       .  A
O411       Eu414   2.458       .  S
O412        C421   1.292       .  A
O412       Eu418   2.476       .  S
O413        C422   1.289       .  A
O413       Eu418   2.457       .  S
Eu414       O432   2.358       .  S
Eu414       O420   2.363       .  S
Eu415       O419   2.351       .  S
Eu415       O430   2.357       .  S
Eu416       O430   2.351       .  S
Eu416       O420   2.366       .  S
Eu417       O419   2.348       .  S
Eu417       O432   2.346       .  S
Eu418       O419   2.355       .  S
Eu418       O430   2.357       .  S
Eu418       O432   2.359       .  S
Eu418       O420   2.350       .  S
C421        C746   1.451       .  S
C422        C680   1.442       .  S
C423        C593   1.429       .  S
C424        C722   1.443       .  S
C425        C590   1.427       .  S
C426        C737   1.437       .  S
C427        C545   1.438       .  S
C428        C663   1.434       .  S
H429        O430   0.966       .  S
H431        O432   0.965       .  S
O433        C444   1.293       .  A
O433       Eu469   2.478       .  S
O434        C445   1.289       .  A
O434       Eu468   2.452       .  S
O435        C446   1.290       .  A
O435       Eu441   2.462       .  S
O436        C447   1.291       .  A
O436       Eu441   2.465       .  S
O437        C447   1.292       .  A
O437       Eu471   2.470       .  S
O438        C446   1.287       .  A
O438       Eu470   2.449       .  S
O439        C445   1.294       .  A
O439       Eu441   2.485       .  S
O440        C444   1.291       .  A
O440       Eu441   2.464       .  S
Eu441       O451   2.362       .  S
Eu441       O443   2.356       .  S
Eu441       O442   2.353       .  S
Eu441       O449   2.357       .  S
O442       Eu471   2.356       .  S
O442       Eu468   2.358       .  S
O443       Eu469   2.353       .  S
O443       Eu470   2.342       .  S
C444        C711   1.445       .  S
C445        C620   1.441       .  S
C446        C691   1.434       .  S
C447        C553   1.441       .  S
H448        O449   0.966       .  S
O449       Eu470   2.348       .  S
O449       Eu468   2.366       .  S
H450        O451   0.966       .  S
O451       Eu469   2.360       .  S
O451       Eu471   2.358       .  S
O452        C475   1.292       .  A
O452       Eu468   2.477       .  S
O453        C476   1.292       .  A
O453       Eu469   2.474       .  S
O454        C477   1.291       .  A
O454       Eu470   2.468       .  S
O455        C478   1.289       .  A
O455       Eu471   2.456       .  S
O456        C479   1.292       .  A
O456       Eu471   2.474       .  S
O457        C480   1.290       .  A
O457       Eu470   2.462       .  S
O458        C481   1.293       .  A
O458       Eu472   2.475       .  S
O459        C482   1.289       .  A
O459       Eu472   2.457       .  S
O460        C481   1.281       .  A
O460       Eu470   2.413       .  S
O461        C482   1.293       .  A
O461       Eu471   2.476       .  S
O462        C477   1.289       .  A
O462       Eu468   2.459       .  S
O463        C480   1.291       .  A
O463       Eu469   2.469       .  S
O464        C479   1.289       .  A
O464       Eu469   2.452       .  S
O465        C478   1.291       .  A
O465       Eu468   2.468       .  S
O466        C475   1.292       .  A
O466       Eu472   2.470       .  S
O467        C476   1.294       .  A
O467       Eu472   2.483       .  S
Eu468       O486   2.351       .  S
Eu468       O474   2.349       .  S
Eu469       O473   2.354       .  S
Eu469       O484   2.355       .  S
Eu470       O484   2.366       .  S
Eu470       O474   2.354       .  S
Eu471       O473   2.349       .  S
Eu471       O486   2.365       .  S
Eu472       O473   2.353       .  S
Eu472       O484   2.356       .  S
Eu472       O486   2.365       .  S
Eu472       O474   2.353       .  S
C475        C700   1.447       .  S
C476        C615   1.453       .  S
C477        C627   1.439       .  S
C478        C566   1.438       .  S
C479        C639   1.439       .  S
C480        C572   1.439       .  S
C481        C608   1.421       .  S
C482        C688   1.439       .  S
H483        O484   0.965       .  S
H485        O486   0.965       .  S
O487        C498   1.292       .  A
O487      Eu1279   2.471   1_545  S
O488        C499   1.287       .  A
O488      Eu1278   2.444   1_545  S
O489       C1256   1.291   1_545  A
O489       Eu495   2.464       .  S
O490        C501   1.291       .  A
O490       Eu495   2.471       .  S
O491        C501   1.289       .  A
O491      Eu2037   2.458   1_455  S
O492        C500   1.291       .  A
O492       Eu524   2.467       .  S
O493        C499   1.289       .  A
O493       Eu495   2.455       .  S
O494       C2010   1.284   1_455  A
O494       Eu495   2.425       .  S
Eu495       O496   2.350       .  S
Eu495      O2017   2.360   1_455  S
Eu495      O2765   2.355   1_545  S
Eu495      O1259   2.349   1_545  S
O496      Eu2037   2.345   1_455  S
O496      Eu1278   2.361   1_545  S
O497       Eu523   2.347       .  S
O497      Eu2763   2.353       .  S
O497      Eu2036   2.350       .  S
C498        C747   1.425       .  S
C498       O2006   1.284       .  A
C499        C654   1.427       .  S
C500        C592   1.435       .  S
C500       O1245   1.288       .  A
C501        C723   1.441       .  S
H502       O1259   0.965       .  S
O503       Eu524   2.361       .  S
O503       Eu522   2.354       .  S
O503      Eu1251   2.349       .  S
O503       H1258   0.965       .  S
H504        O505   0.965       .  S
O505       Eu525   2.346       .  S
O505      Eu2007   2.360       .  S
O505      Eu1279   2.356   1_545  S
O506        C529   1.292       .  A
O506       Eu522   2.472       .  S
O507        C530   1.288       .  A
O507       Eu523   2.450       .  S
O508        C531   1.290       .  A
O508       Eu524   2.460       .  S
O509        C532   1.290       .  A
O509      Eu2037   2.462   1_455  S
O510        C533   1.288       .  A
O510       Eu525   2.451       .  S
O511        C534   1.295       .  A
O511      Eu2036   2.485       .  S
O512        C535   1.290       .  A
O512       Eu526   2.458       .  S
O513        C536   1.293       .  A
O513       Eu526   2.478       .  S
O514        C535   1.293       .  A
O514      Eu2036   2.479       .  S
O515        C536   1.281       .  A
O515      Eu1281   2.411       .  S
O516        C531   1.292       .  A
O516       Eu522   2.472       .  S
O517        C534   1.286       .  A
O517       Eu523   2.438       .  S
O518       C1289   1.291       .  A
O518       Eu523   2.469       .  S
O519        C532   1.290       .  A
O519      Eu1278   2.462   1_545  S
O520       C2041   1.293       .  A
O520       Eu526   2.480       .  S
O521        C530   1.294       .  A
O521       Eu526   2.479       .  S
Eu522      O1244   2.455       .  S
Eu522      O1275   2.451       .  S
Eu522       O528   2.347       .  S
Eu522      O1252   2.364       .  S
Eu522      O2052   2.357   1_455  S
Eu523      O1243   2.480       .  S
Eu523       O527   2.346       .  S
Eu523       O538   2.367       .  S
Eu523      O1261   2.345       .  S
Eu524      O2023   2.485   1_455  S
Eu524      O2026   2.479   1_455  S
Eu524       O528   2.356       .  S
Eu524      O2009   2.350   1_455  S
Eu524      O2050   2.351   1_455  S
Eu525      O2003   2.459       .  S
Eu525      O2021   2.461       .  S
Eu525      O1271   2.407   1_545  S
Eu525      O2008   2.345       .  S
Eu525      O1283   2.354   1_545  S
Eu525      O1296   2.357   1_545  S
Eu526       O527   2.351       .  S
Eu526       O538   2.364       .  S
Eu526       O540   2.350       .  S
Eu526      O2040   2.357       .  S
O527      Eu1281   2.349       .  S
O528      Eu2038   2.356   1_455  S
C529        C701   1.450       .  S
C529       O2032   1.293   1_455  A
C530        C651   1.438       .  S
C531        C580   1.438       .  S
C532        C629   1.437       .  S
C533        C584   1.441       .  S
C533       O1274   1.293   1_545  A
C534        C667   1.438       .  S
C535        C726   1.443       .  S
C536        C603   1.423       .  S
H537        O538   0.965       .  S
O538      Eu2036   2.351       .  S
H539        O540   0.966       .  S
O540      Eu2034   2.357       .  S
O540      Eu1281   2.362       .  S
C541        C542   1.205       .  T
C542       C1725   1.434       .  S
C543        C544   1.204       .  T
C545        C546   1.208       .  T
C547        C548   1.208       .  T
C549        C550   1.344       .  D
C549        H551   1.086       .  S
C550        H552   1.086       .  S
C553        C554   1.209       .  T
C555        C556   1.204       .  T
C557        C558   1.205       .  T
C559        C560   1.207       .  T
C561       C2074   1.342       .  D
C561        H563   1.086       .  S
C562       C2073   1.342       .  D
C562        H564   1.087   1_455  S
C565        C566   1.208       .  T
C567        C568   1.210       .  T
C569        C570   1.211       .  T
C571        C572   1.209       .  T
C573        C574   1.345       .  D
C573        H575   1.086       .  S
C574        H576   1.086       .  S
C577        C578   1.205       .  T
C579        C580   1.208       .  T
C581        C582   1.210       .  T
C583        C584   1.210       .  T
C585        C929   1.473       .  S
C585        C586   1.345       .  D
C585        H587   1.086       .  S
C586        H588   1.086       .  S
C589        C590   1.201       .  T
C591        C592   1.206       .  T
C593        C594   1.202       .  T
C595        C596   1.206       .  T
C597        C598   1.340       .  D
C597        H599   1.087       .  S
C598        H600   1.087       .  S
C601        C907   1.462   1_545  S
C601        C602   1.222       .  T
C603        C604   1.199       .  T
C605        C606   1.220       .  T
C607        C608   1.198       .  T
C609        C610   1.330       .  D
C609        H611   1.087       .  S
C610        H612   1.087       .  S
C613        C614   1.202       .  T
C615        C616   1.216       .  T
C617        C618   1.212       .  T
C619       C2132   1.210       .  T
C620       C2131   1.210   1_455  T
C621        C622   1.344       .  D
C621        H623   1.086       .  S
C622        H624   1.086       .  S
C625        C626   1.204       .  T
C626       C1639   1.433       .  S
C627        C628   1.208       .  T
C629        C630   1.207       .  T
C631        C632   1.205       .  T
C633        C634   1.342       .  D
C633        H635   1.086       .  S
C634        H636   1.087       .  S
C637        C638   1.208       .  T
C639        C640   1.208       .  T
C641        C642   1.206       .  T
C643        C644   1.207       .  T
C645        C646   1.344       .  D
C645        H647   1.086       .  S
C646        H648   1.086       .  S
C649        C650   1.215       .  T
C651        C652   1.208       .  T
C653        C654   1.201       .  T
C655        C656   1.210       .  T
C657        C658   1.339       .  D
C657        H659   1.087       .  S
C658        H660   1.087       .  S
C661        C662   1.209       .  T
C663       C2176   1.206   1_455  T
C664       C2175   1.205       .  T
C665        C666   1.206       .  T
C667        C668   1.208       .  T
C669        C670   1.341       .  D
C669        H671   1.086       .  S
C670        H672   1.087       .  S
C673        C835   1.433   1_545  S
C673        C674   1.204       .  T
C675        C676   1.205       .  T
C677       C1585   1.438       .  S
C677        C678   1.208       .  T
C679        C680   1.210       .  T
C681        C682   1.343       .  D
C681        H683   1.087       .  S
C682        H684   1.086       .  S
C685        C686   1.207       .  T
C687        C825   1.440       .  S
C687        C688   1.209       .  T
C689        C690   1.203       .  T
C691        C692   1.205       .  T
C693        C694   1.345       .  D
C693        H695   1.086       .  S
C694        H696   1.086       .  S
C697       C1454   1.202       .  T
C698       C1453   1.206       .  T
C699        C700   1.213       .  T
C701        C702   1.215       .  T
C702       C1565   1.450       .  S
C703        C704   1.202       .  T
C705        C706   1.335       .  D
C705        H707   1.087       .  S
C706        H708   1.087       .  S
C709        C710   1.208       .  T
C711        C712   1.212       .  T
C713        C714   1.206       .  T
C715        C716   1.202       .  T
C717        C718   1.342       .  D
C717        H719   1.086       .  S
C718        H720   1.087       .  S
C721        C722   1.211       .  T
C723        C724   1.209       .  T
C725        C726   1.211       .  T
C727        C728   1.211       .  T
C729       C2242   1.346       .  D
C729        H731   1.086       .  S
C730       C2241   1.346       .  D
C730        H732   1.086       .  S
C733        C734   1.206       .  T
C735        C736   1.207       .  T
C737        C738   1.207       .  T
C739       C1496   1.206       .  T
C740       C1495   1.211   1_545  T
C741        C742   1.344       .  D
C741        H743   1.086       .  S
C742        H744   1.086       .  S
C745        C746   1.215       .  T
C747        C748   1.200       .  T
C749        C757   1.450       .  S
C749        C750   1.215       .  T
C751        C752   1.199       .  T
C753        C754   1.332       .  D
C753        H755   1.087       .  S
C754        H756   1.087       .  S
C757        N758   1.369       .  A
C757        N762   1.357       .  A
N758        C759   1.371       .  A
C759        N760   1.347       .  A
C759       C1509   1.476       .  S
N760        C761   1.345       .  A
C761        N762   1.354       .  A
C761       C1508   1.417       .  S
C763       N2276   1.370   1_455  A
C763        N768   1.361       .  A
C763       C1501   1.456       .  S
N764       C2275   1.370       .  A
N764        C765   1.371       .  A
C765        N766   1.346       .  A
C765       C1510   1.476       .  S
N766        C767   1.344       .  A
C767       N2280   1.357       .  A
C767       C1504   1.423       .  S
N768       C2279   1.357   1_455  A
C769        N770   1.356       .  A
C769        N774   1.361       .  A
C769       C1495   1.444       .  S
N770        C771   1.358       .  A
C771        N772   1.360       .  A
C771       C1498   1.475       .  S
N772        C773   1.357       .  A
C773        N774   1.361       .  A
C773       C1494   1.442       .  S
C775        N776   1.358       .  A
C775        N780   1.360       .  A
C775       C1490   1.440       .  S
N776        C777   1.358       .  A
C777        N778   1.359       .  A
C777       C1497   1.477       .  S
N778        C779   1.355       .  A
C779        N780   1.360       .  A
C779       C1491   1.439       .  S
C781        N782   1.357       .  A
C781        N786   1.360       .  A
C781       C1481   1.445       .  S
N782        C783   1.359       .  A
C783        N784   1.361       .  A
C783       C1485   1.479       .  S
N784        C785   1.358       .  A
C785        N786   1.361       .  A
C785       C1483   1.442       .  S
C787        N788   1.357       .  A
C787        N792   1.359       .  A
C787       C1480   1.440       .  S
N788        C789   1.357       .  A
C789        N790   1.356       .  A
C789       C1477   1.435       .  S
N790        C791   1.360       .  A
C791        N792   1.360       .  A
C791       C1486   1.480       .  S
C793        N794   1.356   1_554  A
C793        N798   1.367       .  A
C793       C1472   1.446       .  S
N794        C795   1.354       .  A
C795        N796   1.346       .  A
C795       C1469   1.418       .  S
N796        C797   1.348   1_556  A
C797        N798   1.370       .  A
C797       C1473   1.475       .  S
C799        N800   1.357       .  A
C799        N804   1.367       .  A
C799       C1466   1.448       .  S
N800        C801   1.355       .  A
C801        N802   1.346       .  A
C801       C1468   1.417       .  S
N802        C803   1.347       .  A
C803        N804   1.370       .  A
C803       C1474   1.475       .  S
C805       N2318   1.354       .  A
C805        N810   1.355       .  A
C805       C1460   1.430       .  S
N806       C2317   1.354   1_455  A
N806        C807   1.355       .  A
C807        N808   1.362       .  A
C807       C1461   1.474       .  S
N808       C2321   1.359       .  A
C809       N2320   1.359       .  A
C809        N810   1.356       .  A
C809       C2970   1.436       .  S
C811        N812   1.359       .  A
C811        N816   1.360       .  A
C811       C1455   1.443       .  S
N812        C813   1.362       .  A
C813        N814   1.355       .  A
C813       C1462   1.475       .  S
N814        C815   1.354       .  A
C815        N816   1.359       .  A
C815       C1453   1.436       .  S
C817        N818   1.356       .  A
C817        N822   1.355       .  A
C817       C1448   1.434       .  S
N818        C819   1.358       .  A
C819        N820   1.362       .  A
C819       C1449   1.476       .  S
N820        C821   1.359       .  A
C821        N822   1.356       .  A
C821       C1445   1.436       .  S
C823        N824   1.361       .  A
C823        N828   1.357       .  A
C823       C1441   1.442       .  S
N824        C825   1.360       .  A
C825        N826   1.356       .  A
N826        C827   1.357       .  A
C827        N828   1.361       .  A
C827       C1450   1.477       .  S
C829        N830   1.357       .  A
C829        N834   1.354       .  A
C829       C2945   1.433   1_455  S
N830        C831   1.358       .  A
C831        N832   1.361       .  A
C831       C1435   1.442       .  S
N832        C833   1.364       .  A
C833        N834   1.355       .  A
C833       C1437   1.478       .  S
C835        N836   1.353       .  A
N836        C837   1.355       .  A
C837        N838   1.364       .  A
C837       C1438   1.478       .  S
N838        C839   1.362       .  A
C839       C1431   1.443       .  S
C841        N842   1.355       .  A
C841        N846   1.359       .  A
C841       C1424   1.437       .  S
N842        C843   1.359       .  A
C843        N844   1.356       .  A
C843       C1425   1.473       .  S
N844        C845   1.355       .  A
C845        N846   1.359       .  A
C845       C1421   1.436       .  S
C847        N848   1.357       .  A
C847        N852   1.354       .  A
C847       C1420   1.433       .  S
N848        C849   1.358       .  A
C849        N850   1.356       .  A
C849       C1417   1.434       .  S
N850        C851   1.360       .  A
C851        N852   1.356       .  A
C851       C1426   1.472       .  S
C853        N854   1.355       .  A
C853        N858   1.351       .  A
C853       C1409   1.425       .  S
N854        C855   1.358       .  A
C855        N856   1.362       .  A
C855       C1414   1.476       .  S
N856        C857   1.358       .  A
C857        N858   1.352       .  A
C857       C1412   1.428       .  S
C859        N860   1.360       .  A
C859        N864   1.356       .  A
C859       C1408   1.442       .  S
N860        C861   1.361       .  A
C861        N862   1.358       .  A
C861       C1406   1.444       .  S
N862        C863   1.361       .  A
C863        N864   1.357       .  A
C863       C1413   1.477       .  S
C865        N870   1.357   1_554  A
C865       C1400   1.436       .  S
N866        C867   1.360       .  A
C867       C1401   1.479   1_545  S
N868        C869   1.357   1_554  A
C869        N870   1.357       .  A
C869       C1398   1.438       .  S
C871        N872   1.357       .  A
C871        N876   1.362       .  A
C871       C1393   1.446       .  S
N872        C873   1.358       .  A
C873        N874   1.361       .  A
C873       C1402   1.479       .  S
N874        C875   1.358       .  A
C875        N876   1.363       .  A
C875       C1396   1.446       .  S
C877        N878   1.353       .  A
C877        N882   1.358       .  A
C877       C1387   1.432       .  S
N878        C879   1.353       .  A
C879        N880   1.355       .  A
C879       C1386   1.426       .  S
N880        C881   1.359       .  A
C881        N882   1.360       .  A
C881       C1390   1.474       .  S
C883        N884   1.358       .  A
C883        N888   1.359       .  A
C883       C2894   1.440   1_455  S
N884        C885   1.359       .  A
C885        N886   1.358       .  A
C885       C1389   1.475       .  S
N886        C887   1.354       .  A
C887        N888   1.359       .  A
C887       C1384   1.436       .  S
C889        N890   1.347       .  A
C889        N894   1.354       .  A
C889       C1373   1.419       .  S
N890        C891   1.349       .  A
C891        N892   1.368       .  A
C891       C1378   1.475       .  S
N892        C893   1.365       .  A
C893        N894   1.356       .  A
C893       C1375   1.446       .  S
C895        N900   1.364       .  A
C895       C1369   1.452       .  S
N896        C897   1.347       .  A
C897       C1377   1.473       .  S
N898        C899   1.356       .  A
C899        N900   1.363       .  A
C899       C1372   1.447       .  S
C901        N902   1.359       .  A
C901        N906   1.344       .  A
C901       C1363   1.426       .  S
N902        C903   1.362       .  A
C903        N904   1.373       .  A
C903       C1362   1.463       .  S
N904        C905   1.374       .  A
C905        N906   1.346       .  A
C905       C1365   1.480       .  S
C907        N908   1.372       .  A
N908        C909   1.373       .  A
C909        N910   1.345       .  A
C909       C1366   1.481       .  S
N910        C911   1.344       .  A
C911       C1360   1.424       .  S
C913        N914   1.354       .  A
C913        N918   1.356       .  A
C913       C1350   1.430       .  S
N914        C915   1.355       .  A
C915        N916   1.363       .  A
C915       C1354   1.476       .  S
N916        C917   1.359       .  A
C917        N918   1.357       .  A
C917       C1351   1.439       .  S
C919        N920   1.354       .  A
C919        N924   1.357       .  A
C919       C1345   1.429       .  S
C921        N922   1.363       .  A
C921       C1353   1.475       .  S
C923        N924   1.357       .  A
C923       C1347   1.437       .  S
C925        N926   1.361       .  A
C925        N930   1.357       .  A
C925       C1339   1.442       .  S
N926        C927   1.361       .  A
C927        N928   1.354       .  A
C927       C1338   1.438       .  S
N928        C929   1.358       .  A
C929        N930   1.358       .  A
C931        N932   1.356       .  A
C931        N936   1.357       .  A
C931       C1335   1.437       .  S
N932        C933   1.358       .  A
C933        N934   1.361       .  A
C933       C1342   1.477       .  S
N934        C935   1.358       .  A
C935        N936   1.358       .  A
C935       C1334   1.438       .  S
C937        N938   1.375       .  A
C937        N942   1.362       .  A
C937       C1327   1.463       .  S
N938        C939   1.374       .  A
C939        N940   1.344       .  A
C939       C1330   1.479       .  S
N940        C941   1.341       .  A
C941        N942   1.358       .  A
C941       C1325   1.422       .  S
C943       N2456   1.372       .  A
C943        N948   1.359   1_655  A
C943       C1321   1.458   1_655  S
N944       C2455   1.372       .  A
N944        C945   1.374       .  A
C945        N946   1.345       .  A
C945       C1329   1.481       .  S
N946        C947   1.344       .  A
C947       N2460   1.355       .  A
C947       C1323   1.418       .  S
N948       C2459   1.355   1_455  A
C949        N950   1.354       .  A
C949        N954   1.359   1_554  A
C949       C1314   1.434       .  S
N950        C951   1.355       .  A
C951        N952   1.360   1_554  A
C951       C1317   1.472       .  S
N952        C953   1.357       .  A
C953        N954   1.359       .  A
C953       C1315   1.439       .  S
C955        N956   1.359       .  A
C955        N960   1.355       .  A
C955       C1312   1.435       .  S
N956        C957   1.359       .  A
C957        N958   1.356       .  A
C957       C1310   1.439       .  S
N958        C959   1.360       .  A
C959        N960   1.356       .  A
C959       C1318   1.473       .  S
C961        N962   1.357       .  A
C961        N966   1.357       .  A
C961       C1304   1.437       .  S
N962        C963   1.358       .  A
C963        N964   1.355       .  A
C963       C1302   1.434       .  S
N964        C965   1.359       .  A
C965        N966   1.359       .  A
C965       C1305   1.475       .  S
C967        N968   1.358       .  A
C967       N2484   1.359       .  A
C967       C1299   1.440       .  S
N968        C969   1.358       .  A
C969       N2482   1.355       .  A
C969       C2810   1.435       .  S
N970       C2481   1.355       .  A
N970        C971   1.359       .  A
C971        N972   1.360       .  A
C971       C1306   1.476       .  S
N972       C2479   1.358   1_455  A
O973        C984   1.291       .  A
O973      Eu1009   2.461       .  S
O974        C985   1.290       .  A
O974      Eu1008   2.462       .  S
O975        C986   1.288       .  A
O975       Eu981   2.450       .  S
O976        C987   1.290       .  A
O976       Eu981   2.466       .  S
O977        C987   1.290       .  A
O977      Eu1011   2.460       .  S
O978        C986   1.291       .  A
O978      Eu1010   2.464       .  S
O979        C985   1.286       .  A
O979       Eu981   2.441       .  S
O980        C984   1.281       .  A
O980       Eu981   2.412       .  S
Eu981       O991   2.351       .  S
Eu981       O983   2.356       .  S
Eu981       O982   2.337       .  S
Eu981       O989   2.351       .  S
O982      Eu1011   2.355       .  S
O982      Eu1008   2.347       .  S
O983      Eu1009   2.346       .  S
O983      Eu1010   2.350       .  S
C984       C1507   1.417       .  S
C985       C1430   1.430       .  S
C986       C1496   1.435       .  S
C987       C1352   1.439       .  S
H988        O989   0.966       .  S
O989      Eu1010   2.359       .  S
O989      Eu1008   2.355       .  S
H990        O991   0.966       .  S
O991      Eu1009   2.353       .  S
O991      Eu1011   2.353       .  S
O992       C1015   1.290       .  A
O992      Eu1008   2.457       .  S
O993       C1016   1.287       .  A
O993      Eu1009   2.448       .  S
O994       C1017   1.291       .  A
O994      Eu1010   2.469       .  S
O995       C1018   1.289       .  A
O995      Eu1011   2.455       .  S
O996       C1019   1.291       .  A
O996      Eu1011   2.467       .  S
O997       C1020   1.291       .  A
O997      Eu1010   2.466       .  S
O998       C1021   1.293       .  A
O998      Eu1012   2.476       .  S
O999       C1022   1.290       .  A
O999      Eu1012   2.460       .  S
O1000      C1021   1.288       .  A
O1000     Eu1010   2.451       .  S
O1001      C1022   1.291       .  A
O1001     Eu1011   2.468       .  S
O1002      C1017   1.289       .  A
O1002     Eu1008   2.455       .  S
O1003      C1020   1.291       .  A
O1003     Eu1009   2.467       .  S
O1004      C1019   1.288       .  A
O1004     Eu1009   2.447       .  S
O1005      C1018   1.291       .  A
O1005     Eu1008   2.463       .  S
O1006      C1015   1.283       .  A
O1006     Eu1012   2.422       .  S
O1007      C1016   1.290       .  A
O1007     Eu1012   2.460       .  S
Eu1008     O1026   2.354       .  S
Eu1008     O1014   2.351       .  S
Eu1009     O1013   2.354       .  S
Eu1009     O1024   2.349       .  S
Eu1010     O1024   2.359       .  S
Eu1010     O1014   2.348       .  S
Eu1011     O1013   2.350       .  S
Eu1011     O1026   2.355       .  S
Eu1012     O1013   2.345       .  S
Eu1012     O1024   2.340       .  S
Eu1012     O1026   2.361       .  S
Eu1012     O1014   2.352       .  S
C1015      C1470   1.418       .  S
C1016      C1434   1.433       .  S
C1017      C1397   1.437       .  S
C1018      C1303   1.436       .  S
C1019      C1418   1.433       .  S
C1020      C1300   1.439       .  S
C1021      C1316   1.438       .  S
C1022      C1489   1.439       .  S
H1023      O1024   0.965       .  S
H1025      O1026   0.965       .  S
O1027      C1038   1.294       .  A
O1027     Eu1063   2.485   1_556  S
O1028      C1039   1.287       .  A
O1028     Eu1062   2.446       .  S
O1029      C1040   1.292       .  A
O1029     Eu2547   2.474   1_456  S
O1030      C1041   1.294       .  A
O1030     Eu1035   2.484       .  S
O1031      C1041   1.290       .  A
O1031     Eu1065   2.461       .  S
O1032      C1040   1.291       .  A
O1033      C1039   1.291       .  A
O1033     Eu2547   2.465   1_455  S
O1034      C1038   1.286       .  A
O1034     Eu1035   2.439   1_556  S
Eu1035     O2541   2.474   1_554  S
Eu1035     O2545   2.465       .  S
Eu1035     O1045   2.362       .  S
Eu1035     O1037   2.356   1_554  S
Eu1035     O1036   2.345       .  S
Eu1035     O2555   2.358       .  S
O1036     Eu1065   2.351       .  S
O1036     Eu2574   2.358       .  S
O1037     Eu1063   2.351   1_556  S
O1037     Eu1820   2.357   1_566  S
C1038      C1492   1.438       .  S
C1039      C1311   1.434       .  S
C1040      C1432   1.443       .  S
C1041      C1471   1.446       .  S
H1042      O1043   0.965       .  S
O1043     Eu2547   2.358   1_455  S
O1043     Eu1062   2.341       .  S
H1044      O1045   0.965       .  S
O1045     Eu1063   2.350       .  S
O1045     Eu1065   2.363       .  S
O1046     Eu1062   2.453   1_545  S
O1047      C1070   1.288       .  A
O1048      C1071   1.290       .  A
O1048     Eu1064   2.460       .  S
O1049      C1072   1.293       .  A
O1049     Eu1065   2.474       .  S
O1050      C1073   1.289       .  A
O1050     Eu1065   2.459       .  S
O1051      C1074   1.292       .  A
O1051     Eu1064   2.470   1_556  S
O1052      C1075   1.294       .  A
O1052     Eu1066   2.483       .  S
O1053     Eu2578   2.490       .  S
O1054      C1075   1.291       .  A
O1054     Eu1064   2.464       .  S
O1055      C1076   1.289       .  A
O1055     Eu1065   2.459       .  S
O1056     Eu1062   2.455       .  S
O1057      C2586   1.288       .  A
O1058      C1073   1.294       .  A
O1058     Eu1063   2.480       .  S
O1059      C2584   1.280   1_455  A
O1059     Eu1062   2.404       .  S
O1060      C1069   1.289       .  A
O1060     Eu1066   2.455       .  S
O1061      C1070   1.292       .  A
O1061     Eu2578   2.469       .  S
Eu1062     O2548   2.358   1_455  S
Eu1062     O2592   2.362   1_455  S
Eu1063     O1067   2.356       .  S
Eu1063     O1834   2.363   1_565  S
Eu1064     O1793   2.353   1_454  S
Eu1064     O1078   2.354       .  S
Eu1064     O1068   2.354       .  S
Eu1065     O1067   2.352       .  S
Eu1065     O1080   2.356       .  S
Eu1066     O2565   2.490   1_455  S
Eu1066     O2573   2.469   1_455  S
Eu1066     O1823   2.350   1_455  S
Eu1066     O1078   2.361       .  S
Eu1066     O1836   2.357   1_455  S
Eu1066     O1068   2.354       .  S
O1067     Eu1822   2.345   1_565  S
C1069      C1446   1.436       .  S
C1070      C1313   1.433       .  S
C1071      C1399   1.435       .  S
C1072      C1324   1.419       .  S
C1072      O2571   1.280       .  A
C1073      C1394   1.445       .  S
C1074      C1297   1.434       .  S
C1074      O2569   1.288   1_455  A
C1075      C1465   1.448       .  S
C1076      C1370   1.451       .  S
H1077      O1078   0.965       .  S
O1078     Eu1819   2.367   1_455  S
H1079      O1080   0.966       .  S
O1080     Eu2574   2.362       .  S
O1080     Eu1822   2.348   1_565  S
O1081      C1092   1.294       .  A
O1081     Eu1117   2.479       .  S
O1082      C1093   1.296       .  A
O1082     Eu1116   2.498       .  S
O1083      C1094   1.287       .  A
O1083     Eu1089   2.445       .  S
O1084      C1095   1.286       .  A
O1084     Eu1089   2.439       .  S
O1085      C1095   1.291       .  A
O1085     Eu1119   2.462       .  S
O1086      C1094   1.289       .  A
O1086     Eu1118   2.455       .  S
O1087      C1093   1.295       .  A
O1087     Eu1089   2.491       .  S
O1088      C1092   1.289       .  A
O1088     Eu1089   2.454       .  S
Eu1089     O1099   2.364       .  S
Eu1089     O1091   2.357       .  S
Eu1089     O1090   2.359       .  S
Eu1089     O1097   2.338       .  S
O1090     Eu1119   2.367       .  S
O1090     Eu1116   2.350       .  S
O1091     Eu1117   2.357       .  S
O1091     Eu1118   2.348       .  S
C1092      C1484   1.441       .  S
C1093      C1361   1.463       .  S
C1094      C1459   1.429       .  S
C1095      C1411   1.428       .  S
H1096      O1097   0.964       .  S
O1097     Eu1118   2.336       .  S
O1097     Eu1116   2.355       .  S
H1098      O1099   0.966       .  S
O1099     Eu1117   2.364       .  S
O1099     Eu1119   2.359       .  S
O1100      C1123   1.295       .  A
O1100     Eu1116   2.489       .  S
O1101      C1124   1.295       .  A
O1101     Eu1117   2.489       .  S
O1102      C1125   1.295       .  A
O1102     Eu1118   2.489       .  S
O1103      C1126   1.291       .  A
O1103     Eu1119   2.467       .  S
O1104      C1127   1.295       .  A
O1104     Eu1119   2.484       .  S
O1105      C1128   1.291       .  A
O1105     Eu1118   2.464       .  S
O1106      C1129   1.290       .  A
O1106     Eu1120   2.462       .  S
O1107      C1130   1.284       .  A
O1107     Eu1120   2.429       .  S
O1108      C1129   1.282       .  A
O1108     Eu1118   2.415       .  S
O1109      C1130   1.293       .  A
O1109     Eu1119   2.477       .  S
O1110      C1125   1.279       .  A
O1110     Eu1116   2.400       .  S
O1111      C1128   1.292       .  A
O1111     Eu1117   2.467       .  S
O1112      C1127   1.286       .  A
O1112     Eu1117   2.438       .  S
O1113      C1126   1.287       .  A
O1113     Eu1116   2.443       .  S
O1114      C1123   1.287       .  A
O1114     Eu1120   2.442       .  S
O1115      C1124   1.292       .  A
O1115     Eu1120   2.476       .  S
Eu1116     O1134   2.350       .  S
Eu1116     O1122   2.354       .  S
Eu1117     O1121   2.347       .  S
Eu1117     O1132   2.355       .  S
Eu1118     O1132   2.369       .  S
Eu1118     O1122   2.348       .  S
Eu1119     O1121   2.347       .  S
Eu1119     O1134   2.357       .  S
Eu1120     O1121   2.342       .  S
Eu1120     O1132   2.342       .  S
Eu1120     O1134   2.364       .  S
Eu1120     O1122   2.346       .  S
C1123      C1442   1.441       .  S
C1124      C1358   1.457       .  S
C1125      C1326   1.422       .  S
C1126      C1388   1.432       .  S
C1127      C1337   1.437       .  S
C1128      C1381   1.439       .  S
C1129      C1374   1.418       .  S
C1130      C1454   1.428       .  S
H1131      O1132   0.965       .  S
H1133      O1134   0.965       .  S
O1135      C1146   1.291       .  A
O1135     Eu1171   2.467       .  S
O1136      C1147   1.295       .  A
O1136     Eu1170   2.486       .  S
O1137      C1148   1.288       .  A
O1137     Eu1143   2.450       .  S
O1138      C1149   1.291       .  A
O1138     Eu1143   2.465       .  S
O1139      C1149   1.289       .  A
O1139     Eu1173   2.459       .  S
O1140      C1148   1.292       .  A
O1140     Eu1172   2.471       .  S
O1141      C1147   1.289       .  A
O1141     Eu1143   2.453       .  S
O1142      C1146   1.293       .  A
O1142     Eu1143   2.478       .  S
Eu1143     O1153   2.356       .  S
Eu1143     O1145   2.348       .  S
Eu1143     O1144   2.357       .  S
Eu1143     O1151   2.360       .  S
O1144     Eu1173   2.347       .  S
O1144     Eu1170   2.355       .  S
O1145     Eu1171   2.352       .  S
O1145     Eu1172   2.343       .  S
C1146      C1506   1.448       .  S
C1147      C1405   1.443       .  S
C1148      C1422   1.435       .  S
C1149      C1333   1.438       .  S
H1150      O1151   0.965       .  S
O1151     Eu1172   2.355       .  S
O1151     Eu1170   2.358       .  S
H1152      O1153   0.966       .  S
O1153     Eu1171   2.361       .  S
O1153     Eu1173   2.367       .  S
O1154      C1177   1.295       .  A
O1154     Eu1170   2.492       .  S
O1155      C1178   1.292       .  A
O1155     Eu1171   2.472       .  S
O1156      C1179   1.288       .  A
O1156     Eu1172   2.450       .  S
O1157      C1180   1.291       .  A
O1157     Eu1173   2.466       .  S
O1158      C1181   1.286       .  A
O1158     Eu1173   2.439       .  S
O1159      C1182   1.293       .  A
O1159     Eu1172   2.481       .  S
O1160      C1183   1.291       .  A
O1160     Eu1174   2.468       .  S
O1161      C1184   1.287       .  A
O1161     Eu1174   2.445       .  S
O1162      C1183   1.287       .  A
O1162     Eu1172   2.446       .  S
O1163      C1184   1.291       .  A
O1163     Eu1173   2.467       .  S
O1164      C1179   1.290       .  A
O1164     Eu1170   2.455       .  S
O1165      C1182   1.288       .  A
O1165     Eu1171   2.449       .  S
O1166      C1181   1.291       .  A
O1166     Eu1171   2.463       .  S
O1167      C1180   1.288       .  A
O1167     Eu1170   2.450       .  S
O1168      C1177   1.293       .  A
O1168     Eu1174   2.480       .  S
O1169      C1178   1.290       .  A
O1169     Eu1174   2.463       .  S
Eu1170     O1188   2.353       .  S
Eu1170     O1176   2.359       .  S
Eu1171     O1175   2.347       .  S
Eu1171     O1186   2.358       .  S
Eu1172     O1186   2.356       .  S
Eu1172     O1176   2.367       .  S
Eu1173     O1175   2.350       .  S
Eu1173     O1188   2.348       .  S
Eu1174     O1175   2.354       .  S
Eu1174     O1186   2.359       .  S
Eu1174     O1188   2.359       .  S
Eu1174     O1176   2.352       .  S
C1177      C1502   1.456       .  S
C1178      C1436   1.442       .  S
C1179      C1349   1.429       .  S
C1180      C1478   1.435       .  S
C1181      C1346   1.429       .  S
C1182      C1493   1.441       .  S
C1183      C1301   1.433       .  S
C1184      C1419   1.432       .  S
H1185      O1186   0.966       .  S
H1187      O1188   0.965       .  S
O1189      C1200   1.291       .  A
O1189     Eu1225   2.465       .  S
O1190      C1201   1.293       .  A
O1190     Eu1224   2.482       .  S
O1191      C1202   1.290       .  A
O1191     Eu1197   2.461       .  S
O1192      C1203   1.294       .  A
O1192     Eu1197   2.483       .  S
O1193      C1203   1.288       .  A
O1193     Eu1227   2.446       .  S
O1194      C1202   1.288       .  A
O1194     Eu1226   2.451       .  S
O1195      C1201   1.290       .  A
O1195     Eu1197   2.464       .  S
O1196      C1200   1.282       .  A
O1196     Eu1197   2.412       .  S
Eu1197     O1207   2.356       .  S
Eu1197     O1199   2.370       .  S
Eu1197     O1198   2.348       .  S
Eu1197     O1205   2.347       .  S
O1198     Eu1227   2.362       .  S
O1198     Eu1224   2.351       .  S
O1199     Eu1225   2.353       .  S
O1199     Eu1226   2.348       .  S
C1200      C1467   1.417       .  S
C1201      C1376   1.446       .  S
C1202      C1447   1.433       .  S
C1203      C1309   1.439       .  S
H1204      O1205   0.965       .  S
O1205     Eu1226   2.353       .  S
O1205     Eu1224   2.362       .  S
H1206      O1207   0.965       .  S
O1207     Eu1225   2.359       .  S
O1207     Eu1227   2.355       .  S
O1208      C1231   1.294       .  A
O1208     Eu1224   2.483       .  S
O1209      C1232   1.288       .  A
O1209     Eu1225   2.451       .  S
O1210      C1233   1.294       .  A
O1210     Eu1226   2.483       .  S
O1211      C1234   1.297       .  A
O1211     Eu1227   2.499       .  S
O1212      C1235   1.297       .  A
O1212     Eu1227   2.498       .  S
O1213      C1236   1.296       .  A
O1213     Eu1226   2.501       .  S
O1214      C1237   1.296       .  A
O1214     Eu1228   2.490       .  S
O1215      C1238   1.290       .  A
O1215     Eu1228   2.460       .  S
O1216      C1237   1.281       .  A
O1216     Eu1226   2.408       .  S
O1217      C1238   1.292       .  A
O1217     Eu1227   2.467       .  S
O1218      C1233   1.286       .  A
O1218     Eu1224   2.438       .  S
O1219      C1236   1.293       .  A
O1219     Eu1225   2.485       .  S
O1220      C1235   1.288       .  A
O1220     Eu1225   2.446       .  S
O1221      C1234   1.292       .  A
O1221     Eu1224   2.473       .  S
O1222      C1231   1.289       .  A
O1222     Eu1228   2.454       .  S
O1223      C1232   1.295       .  A
O1223     Eu1228   2.490       .  S
Eu1224     O1242   2.358       .  S
Eu1224     O1230   2.359       .  S
Eu1225     O1229   2.360       .  S
Eu1225     O1240   2.348       .  S
Eu1226     O1240   2.357       .  S
Eu1226     O1230   2.359       .  S
Eu1227     O1229   2.359       .  S
Eu1227     O1242   2.357       .  S
Eu1228     O1229   2.352       .  S
Eu1228     O1240   2.346       .  S
Eu1228     O1242   2.373       .  S
Eu1228     O1230   2.352       .  S
C1231      C1456   1.442       .  S
C1232      C1371   1.446       .  S
C1233      C1383   1.435       .  S
C1234      C1322   1.459       .  S
C1235      C1395   1.445       .  S
C1236      C1328   1.463       .  S
C1237      C1364   1.427       .  S
C1238      C1444   1.437       .  S
H1239      O1240   0.965       .  S
H1241      O1242   0.965       .  S
O1243      C1254   1.294       .  A
O1244      C1255   1.289       .  A
O1245     Eu1251   2.452       .  S
O1246      C1257   1.291       .  A
O1246     Eu1251   2.471       .  S
O1247      C1257   1.288       .  A
O1247     Eu2793   2.454   1_455  S
O1248      C1256   1.290       .  A
O1248     Eu1280   2.459       .  S
O1249      C1255   1.285       .  A
O1249     Eu1251   2.436       .  S
O1250      C2766   1.281   1_455  A
O1250     Eu1251   2.411       .  S
Eu1251     O2773   2.354   1_455  S
Eu1251     O2009   2.353   1_455  S
Eu1251     O1252   2.344       .  S
O1252     Eu2793   2.350   1_455  S
O1253     Eu2007   2.355   1_565  S
O1253     Eu1279   2.350       .  S
O1253     Eu2792   2.349       .  S
C1254      C1503   1.424       .  S
C1254      O2762   1.281       .  A
C1255      C1410   1.424       .  S
C1256      C1348   1.437       .  S
C1257      C1479   1.439       .  S
O1259     Eu1280   2.361       .  S
O1259     Eu1278   2.356       .  S
H1260      O1261   0.965       .  S
O1261     Eu2763   2.354       .  S
O1261     Eu1281   2.338       .  S
O1262      C1285   1.290       .  A
O1262     Eu1278   2.459       .  S
O1263      C1286   1.290       .  A
O1263     Eu1279   2.462       .  S
O1264      C1287   1.289       .  A
O1264     Eu1280   2.455       .  S
O1265      C1288   1.288       .  A
O1265     Eu2793   2.446   1_455  S
O1266      C1289   1.288       .  A
O1266     Eu1281   2.458       .  S
O1267      C1290   1.293       .  A
O1267     Eu2792   2.474       .  S
O1268      C1291   1.290       .  A
O1268     Eu1282   2.460       .  S
O1269      C1292   1.295       .  A
O1269     Eu1282   2.483       .  S
O1270      C1291   1.293       .  A
O1270     Eu2792   2.479       .  S
O1271      C1292   1.280       .  A
O1272      C1287   1.291       .  A
O1272     Eu1278   2.468       .  S
O1273      C1290   1.288       .  A
O1273     Eu1279   2.448       .  S
O1274     Eu1279   2.478       .  S
O1275      C1288   1.289       .  A
O1276      C2797   1.291       .  A
O1276     Eu1282   2.462       .  S
O1277      C1286   1.293       .  A
O1277     Eu1282   2.477       .  S
Eu1278     O2808   2.354   1_455  S
Eu1278     O1284   2.349       .  S
Eu1279     O1283   2.341       .  S
Eu1279     O1294   2.363       .  S
Eu1280     O2779   2.474   1_455  S
Eu1280     O2782   2.478   1_455  S
Eu1280     O2765   2.349       .  S
Eu1280     O2806   2.348   1_455  S
Eu1280     O1284   2.352       .  S
Eu1281     O2759   2.454       .  S
Eu1281     O2777   2.446       .  S
Eu1281     O2764   2.350       .  S
Eu1282     O1283   2.344       .  S
Eu1282     O1294   2.358       .  S
Eu1282     O1296   2.357       .  S
Eu1282     O2796   2.357       .  S
O1284     Eu2794   2.357   1_455  S
C1285      C1457   1.436       .  S
C1285      O2788   1.291   1_455  A
C1286      C1407   1.441       .  S
C1287      C1336   1.436       .  S
C1288      C1385   1.426       .  S
C1289      C1340   1.441       .  S
C1290      C1423   1.436       .  S
C1291      C1482   1.444       .  S
C1292      C1359   1.424       .  S
H1293      O1294   0.965       .  S
O1294     Eu2792   2.348       .  S
H1295      O1296   0.966       .  S
O1296     Eu2790   2.354       .  S
C1297      C1298   1.205       .  T
C1298      C2481   1.435       .  S
C1299      C1300   1.208       .  T
C1301      C1302   1.205       .  T
C1303      C1304   1.207       .  T
C1305      C1306   1.346       .  D
C1305      H1307   1.086       .  S
C1306      H1308   1.086       .  S
C1309      C1310   1.208       .  T
C1311      C1312   1.205       .  T
C1313      C1314   1.205       .  T
C1315      C1316   1.208       .  T
C1317      C2830   1.341       .  D
C1317      H1319   1.087       .  S
C1318      C2829   1.341   1_455  D
C1318      H1320   1.087   1_455  S
C1321      C1322   1.220       .  T
C1323      C1324   1.196       .  T
C1325      C1326   1.199       .  T
C1327      C1328   1.222       .  T
C1329      C1330   1.328       .  D
C1329      H1331   1.087       .  S
C1330      H1332   1.087       .  S
C1333      C1334   1.208       .  T
C1335      C1336   1.206       .  T
C1337      C1338   1.207       .  T
C1339      C1340   1.209       .  T
C1341      C1342   1.343       .  D
C1341      H1343   1.086       .  S
C1342      H1344   1.086       .  S
C1345      C1346   1.202       .  T
C1347      C1348   1.207       .  T
C1349      C1350   1.203       .  T
C1351      C1352   1.208       .  T
C1353      C1354   1.341       .  D
C1353      H1355   1.087       .  S
C1354      H1356   1.087       .  S
C1357      C1358   1.219       .  T
C1359      C1360   1.200       .  T
C1361      C1362   1.223       .  T
C1363      C1364   1.201       .  T
C1365      C1366   1.329       .  D
C1365      H1367   1.087       .  S
C1366      H1368   1.087       .  S
C1369      C1370   1.215       .  T
C1371      C1372   1.212       .  T
C1373      C1374   1.196       .  T
C1375      C2888   1.212       .  T
C1376      C2887   1.212   1_455  T
C1377      C1378   1.331       .  D
C1377      H1379   1.087       .  S
C1378      H1380   1.087       .  S
C1381      C1382   1.208       .  T
C1382      C2395   1.440       .  S
C1383      C1384   1.206       .  T
C1385      C1386   1.200       .  T
C1387      C1388   1.204       .  T
C1389      C1390   1.346       .  D
C1389      H1391   1.086       .  S
C1390      H1392   1.086       .  S
C1393      C1394   1.212       .  T
C1395      C1396   1.212       .  T
C1397      C1398   1.207       .  T
C1399      C1400   1.206       .  T
C1401      C1402   1.345       .  D
C1401      H1403   1.086       .  S
C1402      H1404   1.086       .  S
C1405      C1406   1.211       .  T
C1407      C1408   1.210       .  T
C1409      C1410   1.199       .  T
C1411      C1412   1.201       .  T
C1413      C1414   1.343       .  D
C1413      H1415   1.086       .  S
C1414      H1416   1.086       .  S
C1417      C1418   1.205       .  T
C1419      C2932   1.204   1_455  T
C1420      C2931   1.204       .  T
C1421      C1422   1.206       .  T
C1423      C1424   1.207       .  T
C1425      C1426   1.342       .  D
C1425      H1427   1.087       .  S
C1426      H1428   1.087       .  S
C1429      C1430   1.203       .  T
C1431      C1432   1.210       .  T
C1433      C2341   1.434       .  S
C1433      C1434   1.205       .  T
C1435      C1436   1.210       .  T
C1437      C1438   1.340       .  D
C1437      H1439   1.087       .  S
C1438      H1440   1.087       .  S
C1441      C1442   1.209       .  T
C1443      C1444   1.207       .  T
C1445      C1446   1.206       .  T
C1447      C1448   1.205       .  T
C1449      C1450   1.343       .  D
C1449      H1451   1.086       .  S
C1450      H1452   1.086       .  S
C1455      C1456   1.210       .  T
C1457      C1458   1.206       .  T
C1458      C2321   1.436       .  S
C1459      C1460   1.202       .  T
C1461      C1462   1.340       .  D
C1461      H1463   1.087       .  S
C1462      H1464   1.087       .  S
C1465      C1466   1.214       .  T
C1467      C1468   1.196       .  T
C1469      C1470   1.196       .  T
C1471      C1472   1.212       .  T
C1473      C1474   1.331       .  D
C1473      H1475   1.087       .  S
C1474      H1476   1.087       .  S
C1477      C1478   1.206       .  T
C1479      C1480   1.208       .  T
C1481      C1482   1.211       .  T
C1483      C1484   1.210       .  T
C1485      C2998   1.346       .  D
C1485      H1487   1.086       .  S
C1486      C2997   1.346   1_455  D
C1486      H1488   1.086   1_455  S
C1489      C1490   1.208       .  T
C1491      C1492   1.208       .  T
C1493      C1494   1.209       .  T
C1497      C1498   1.345       .  D
C1497      H1499   1.086       .  S
C1498      H1500   1.086       .  S
C1501      C1502   1.218       .  T
C1503      C1504   1.200       .  T
C1505      C1506   1.214       .  T
C1507      C1508   1.195       .  T
C1509      C1510   1.329       .  D
C1509      H1511   1.087       .  S
C1510      H1512   1.087       .  S
C1513      N1514   1.366       .  A
C1513      N1518   1.359       .  A
C1513      C3017   1.449   1_545  S
N1514      C1515   1.368       .  A
C1515      N1516   1.348       .  A
C1515      C2265   1.475       .  S
N1516      C1517   1.347       .  A
C1517      N1518   1.357       .  A
C1517      C2264   1.423       .  S
C1519      N1524   1.359       .  A
C1519      C2257   1.451       .  S
N1520      C1521   1.369       .  A
C1521      N1522   1.349       .  A
C1521      C2266   1.475       .  S
N1522      C1523   1.347       .  A
C1523      C2260   1.425       .  S
C1525      N1526   1.356       .  A
C1525      N1530   1.359       .  A
C1525      C2251   1.437       .  S
N1526      C1527   1.357       .  A
C1527      N1528   1.359       .  A
C1527      C2254   1.474       .  S
N1528      C1529   1.356       .  A
C1529      N1530   1.359       .  A
C1529      C2250   1.438       .  S
C1531      N1532   1.356       .  A
C1531      N1536   1.357       .  A
C1531      C2246   1.436       .  S
N1532      C1533   1.358       .  A
C1533      N1534   1.360       .  A
C1533      C2253   1.474       .  S
N1534      C1535   1.357       .  A
C1535      N1536   1.358       .  A
C1535      C2247   1.437       .  S
C1537      N1538   1.357       .  A
C1537      N1542   1.360       .  A
C1537      C2237   1.444       .  S
N1538      C1539   1.359       .  A
C1539      N1540   1.362       .  A
C1539      C2241   1.483       .  S
N1540      C1541   1.360       .  A
C1541      N1542   1.361       .  A
C1541      C2239   1.445       .  S
C1543      N1544   1.358       .  A
C1543      N1548   1.358       .  A
C1543      C2236   1.442       .  S
N1544      C1545   1.359       .  A
C1545      N1546   1.360       .  A
C1545      C2233   1.443       .  S
N1546      C1547   1.363       .  A
C1547      N1548   1.360       .  A
C1547      C2242   1.483       .  S
C1549      N1550   1.354   1_554  A
C1549      N1554   1.355       .  A
C1549      C2228   1.429       .  S
N1550      C1551   1.354       .  A
C1551      N1552   1.359   1_556  A
C1551      C2225   1.436       .  S
N1552      C1553   1.363       .  A
C1553      N1554   1.357       .  A
C1553      C2229   1.478       .  S
C1555      N1556   1.360       .  A
C1555      N1560   1.354       .  A
C1555      C2222   1.439       .  S
N1556      C1557   1.361       .  A
C1557      N1558   1.360       .  A
C1557      C2224   1.446       .  S
N1558      C1559   1.363       .  A
C1559      N1560   1.356       .  A
C1559      C2230   1.477       .  S
C1561      N1566   1.359       .  A
C1561      C2216   1.429       .  S
N1562      C1563   1.351       .  A
C1563      N1564   1.367       .  A
C1563      C2217   1.476       .  S
C1565      N1566   1.360   1_455  A
C1567      N1568   1.364       .  A
C1567      N1572   1.359       .  A
C1567      C2211   1.448       .  S
N1568      C1569   1.367       .  A
C1569      N1570   1.351       .  A
C1569      C2218   1.476       .  S
N1570      C1571   1.350       .  A
C1571      N1572   1.358       .  A
C1571      C2209   1.429       .  S
C1573      N1574   1.358       .  A
C1573      N1578   1.354       .  A
C1573      C2204   1.435       .  S
N1574      C1575   1.359       .  A
C1575      N1576   1.361       .  A
C1575      C2205   1.477       .  S
N1576      C1577   1.356       .  A
C1577      N1578   1.355       .  A
C1577      C2201   1.432       .  S
C1579      N1580   1.359       .  A
C1579      N1584   1.357       .  A
C1579      C2197   1.438       .  S
N1580      C1581   1.358       .  A
C1581      N1582   1.356       .  A
C1581      C2955   1.438   1_545  S
N1582      C1583   1.358       .  A
C1583      N1584   1.360       .  A
C1583      C2206   1.476       .  S
C1585      N1586   1.359       .  A
C1585      N1590   1.354       .  A
N1586      C1587   1.361       .  A
C1587      N1588   1.359       .  A
C1587      C2191   1.443       .  S
N1588      C1589   1.362       .  A
C1589      N1590   1.356       .  A
C1589      C2193   1.476       .  S
C1591      N1592   1.357       .  A
C1591      N2352   1.354       .  A
C1591      C2941   1.431       .  S
N1592      C1593   1.358       .  A
C1593      N1594   1.362       .  A
C1593      C2194   1.478       .  S
N1594      C1595   1.357       .  A
C1595      N2352   1.354       .  A
C1595      C2187   1.434       .  S
N1596      C2347   1.357       .  A
N1596      C2351   1.359       .  A
C1597      N1598   1.355       .  A
C1597      N1602   1.360       .  A
C1597      C2180   1.439       .  S
N1598      C1599   1.359       .  A
C1599      N1600   1.355       .  A
C1599      C2181   1.472       .  S
N1600      C1601   1.355       .  A
C1601      N1602   1.360       .  A
C1601      C2177   1.436       .  S
C1603      N1604   1.359       .  A
C1603      N1608   1.354       .  A
C1603      C2176   1.435       .  S
N1604      C1605   1.360       .  A
C1605      N1606   1.357       .  A
C1605      C2173   1.440       .  S
N1606      C1607   1.360       .  A
C1607      N1608   1.355       .  A
C1607      C2182   1.471       .  S
C1609      N1610   1.352       .  A
C1609      N1614   1.354       .  A
C1609      C2165   1.427       .  S
N1610      C1611   1.354       .  A
C1611      N1612   1.367       .  A
C1611      C2170   1.479       .  S
N1612      C1613   1.364       .  A
C1613      N1614   1.356       .  A
C1613      C2168   1.442       .  S
C1615      N1616   1.361       .  A
C1615      N1620   1.353       .  A
C1615      C2164   1.439       .  S
N1616      C1617   1.362       .  A
C1617      N1618   1.363       .  A
C1617      C2162   1.452       .  S
N1618      C1619   1.366       .  A
C1619      N1620   1.355       .  A
C1619      C2169   1.481       .  S
C1621      N2378   1.358       .  A
C1621      N1626   1.356   1_554  A
C1621      C2156   1.438       .  S
N1622      C2377   1.357       .  A
N1622      C1623   1.358       .  A
C1623      N2380   1.361       .  A
C1623      C2157   1.477       .  S
N1624      C2379   1.361       .  A
N1624      C1625   1.357   1_554  A
C1625      N1626   1.356       .  A
C1625      C2154   1.435       .  S
C1627      N1628   1.356       .  A
C1627      N1632   1.359       .  A
C1627      C2149   1.439       .  S
N1628      C1629   1.357       .  A
C1629      N1630   1.361       .  A
C1629      C2158   1.477       .  S
N1630      C1631   1.358       .  A
C1631      N1632   1.359       .  A
C1631      C2152   1.440       .  S
C1633      N1634   1.355       .  A
C1633      N1638   1.355       .  A
C1633      C2143   1.433       .  S
N1634      C1635   1.356       .  A
C1635      N1636   1.360       .  A
C1635      C2142   1.437       .  S
N1636      C1637   1.363       .  A
C1637      N1638   1.357       .  A
C1637      C2146   1.477       .  S
C1639      N1640   1.355       .  A
C1639      N1644   1.357       .  A
N1640      C1641   1.357       .  A
C1641      N1642   1.362       .  A
C1641      C2145   1.478       .  S
N1642      C1643   1.359       .  A
C1643      N1644   1.357       .  A
C1643      C2140   1.439       .  S
C1645      N1646   1.360       .  A
C1645      N1650   1.361       .  A
C1645      C2129   1.446       .  S
N1646      C1647   1.363       .  A
C1647      N1648   1.358       .  A
C1647      C2134   1.482       .  S
N1648      C1649   1.357       .  A
C1649      N1650   1.360       .  A
C1649      C2131   1.442       .  S
C1651      N2408   1.346       .  A
C1651      N1656   1.360       .  A
C1651      C2125   1.427       .  S
N1652      C2407   1.361   1_545  A
N1652      C1653   1.363       .  A
C1653      N2410   1.357   1_545  A
C1653      C2133   1.481       .  S
N1654      C2409   1.368       .  A
N1654      C1655   1.367       .  A
C1655      N1656   1.362       .  A
C1655      C2128   1.454       .  S
C1657      N1658   1.355       .  A
C1657      N1662   1.344       .  A
C1657      C2119   1.420       .  S
N1658      C1659   1.359       .  A
C1659      N1660   1.374       .  A
C1659      C2118   1.458       .  S
N1660      C1661   1.374       .  A
C1661      N1662   1.346       .  A
C1661      C2121   1.482       .  S
C1663      N1664   1.372       .  A
C1663      N2424   1.359       .  A
C1663      C2869   1.457       .  S
N1664      C1665   1.374       .  A
C1665      N1666   1.347       .  A
C1665      C2122   1.482       .  S
N1666      C1667   1.345       .  A
C1667      N2424   1.356       .  A
C1667      C2116   1.422       .  S
N1668      C2419   1.362       .  A
N1668      C2423   1.359       .  A
C1669      N1670   1.352       .  A
C1669      N1674   1.356       .  A
C1669      C2106   1.430       .  S
N1670      C1671   1.354       .  A
C1671      N1672   1.362       .  A
C1671      C2110   1.472       .  S
N1672      C1673   1.358       .  A
C1673      N1674   1.357       .  A
C1673      C2107   1.437       .  S
C1675      N1676   1.354       .  A
C1675      N1680   1.354       .  A
C1675      C2101   1.427       .  S
N1676      C2433   1.356       .  A
C1677      N2432   1.355   1_545  A
C1677      N1678   1.362       .  A
C1677      C2109   1.473       .  S
N1678      C2435   1.357   1_545  A
C1679      N2434   1.360       .  A
C1679      N1680   1.354       .  A
C1679      C2103   1.435       .  S
C1681      N1682   1.361       .  A
C1681      N1686   1.356   1_545  A
C1681      C2095   1.443       .  S
N1682      C1683   1.362       .  A
C1683      N1684   1.358       .  A
C1683      C2094   1.444       .  S
N1684      C1685   1.361   1_545  A
C1685      N1686   1.357       .  A
C1685      C2853   1.477       .  S
C1687      N1688   1.357       .  A
C1687      N1692   1.359       .  A
C1687      C2091   1.439       .  S
N1688      C1689   1.358       .  A
C1689      N1690   1.358       .  A
C1689      C2098   1.473       .  S
N1690      C1691   1.354       .  A
C1691      N1692   1.359       .  A
C1691      C2090   1.435       .  S
C1693      N1694   1.358       .  A
C1693      N1698   1.358       .  A
C1693      C2083   1.441       .  S
N1694      C1695   1.359       .  A
C1695      N1696   1.363       .  A
C1695      C2086   1.483       .  S
N1696      C1697   1.360       .  A
C1697      N1698   1.359       .  A
C1697      C2081   1.444       .  S
C1699      N1704   1.357       .  A
C1699      C2077   1.439       .  S
N1700      C1701   1.359       .  A
C1701      N1702   1.363       .  A
C1701      C2085   1.482       .  S
N1702      C1703   1.361       .  A
C1703      C2079   1.443       .  S
C1705      N1706   1.356       .  A
C1705      N1710   1.358   1_554  A
C1705      C2070   1.434       .  S
N1706      C1707   1.357       .  A
C1707      N1708   1.361       .  A
C1707      C2073   1.476   1_655  S
N1708      C1709   1.356   1_554  A
C1709      N1710   1.358       .  A
C1709      C2071   1.438       .  S
C1711      N1712   1.357       .  A
C1711      N1716   1.353       .  A
C1711      C2068   1.432       .  S
N1712      C1713   1.358       .  A
C1713      N1714   1.360       .  A
C1713      C2066   1.441       .  S
N1714      C1715   1.362       .  A
C1715      N1716   1.355       .  A
C1715      C2074   1.473       .  S
C1717      N1718   1.359       .  A
C1717      N1722   1.357       .  A
C1717      C2060   1.439       .  S
N1718      C1719   1.359       .  A
C1719      N1720   1.356       .  A
C1719      C2058   1.438       .  S
N1720      C1721   1.360       .  A
C1721      N1722   1.358       .  A
C1721      C2061   1.477       .  S
C1723      N1724   1.355       .  A
C1723      C2055   1.432       .  S
N1724      C1725   1.355   1_655  A
N1726      C1727   1.361       .  A
C1727      N1728   1.358       .  A
C1727      C2062   1.476       .  S
O1729      C1740   1.292       .  A
O1729     Eu1765   2.472       .  S
O1730      C1741   1.287       .  A
O1730     Eu1764   2.447       .  S
O1731      C1742   1.289       .  A
O1731     Eu1737   2.459       .  S
O1732      C1743   1.291       .  A
O1732     Eu1737   2.468       .  S
O1733      C1743   1.289       .  A
O1733     Eu1767   2.453       .  S
O1734      C1742   1.293       .  A
O1734     Eu1766   2.475       .  S
O1735      C1741   1.290       .  A
O1735     Eu1737   2.463       .  S
O1736      C1740   1.282       .  A
O1736     Eu1737   2.415       .  S
Eu1737     O1747   2.361       .  S
Eu1737     O1739   2.354       .  S
Eu1737     O1738   2.340       .  S
Eu1737     O1745   2.349       .  S
O1738     Eu1767   2.361       .  S
O1738     Eu1764   2.347       .  S
O1739     Eu1765   2.342       .  S
O1739     Eu1766   2.343       .  S
C1740      C2263   1.422       .  S
C1741      C2186   1.433       .  S
C1742      C2252   1.443       .  S
C1743      C2108   1.436       .  S
H1744      O1745   0.966       .  S
O1745     Eu1766   2.360       .  S
O1745     Eu1764   2.359       .  S
H1746      O1747   0.966       .  S
O1747     Eu1765   2.350       .  S
O1747     Eu1767   2.352       .  S
O1748      C1771   1.288       .  A
O1748     Eu1764   2.449       .  S
O1749      C1772   1.288       .  A
O1749     Eu1765   2.451       .  S
O1750      C1773   1.291       .  A
O1750     Eu1766   2.463       .  S
O1751      C1774   1.289       .  A
O1751     Eu1767   2.454       .  S
O1752      C1775   1.293       .  A
O1752     Eu1767   2.482       .  S
O1753      C1776   1.289       .  A
O1753     Eu1766   2.458       .  S
O1754      C1777   1.292       .  A
O1754     Eu1768   2.473       .  S
O1755      C1778   1.290       .  A
O1755     Eu1768   2.458       .  S
O1756      C1777   1.289       .  A
O1756     Eu1766   2.454       .  S
O1757      C1778   1.291       .  A
O1757     Eu1767   2.465       .  S
O1758      C1773   1.289       .  A
O1758     Eu1764   2.456       .  S
O1759      C1776   1.289       .  A
O1759     Eu1765   2.454       .  S
O1760      C1775   1.287       .  A
O1760     Eu1765   2.446       .  S
O1761      C1774   1.292       .  A
O1761     Eu1764   2.472       .  S
O1762      C1771   1.291       .  A
O1762     Eu1768   2.469       .  S
O1763      C1772   1.293       .  A
O1763     Eu1768   2.473       .  S
Eu1764     O1782   2.351       .  S
Eu1764     O1770   2.354       .  S
Eu1765     O1769   2.355       .  S
Eu1765     O1780   2.358       .  S
Eu1766     O1780   2.360       .  S
Eu1766     O1770   2.355       .  S
Eu1767     O1769   2.346       .  S
Eu1767     O1782   2.360       .  S
Eu1768     O1769   2.356       .  S
Eu1768     O1780   2.355       .  S
Eu1768     O1782   2.359       .  S
Eu1768     O1770   2.351       .  S
C1771      C2226   1.436       .  S
C1772      C2190   1.437       .  S
C1773      C2153   1.435       .  S
C1774      C2059   1.438       .  S
C1775      C2174   1.440       .  S
C1776      C2056   1.431       .  S
C1777      C2072   1.437       .  S
C1778      C2245   1.435       .  S
H1779      O1780   0.965       .  S
H1781      O1782   0.965       .  S
O1783      C1794   1.291       .  A
O1783     Eu1819   2.469   1_556  S
O1784      C1795   1.287       .  A
O1784     Eu1818   2.443       .  S
O1785      C1796   1.289       .  A
O1786      C1797   1.289       .  A
O1786     Eu1791   2.453       .  S
O1787      C1797   1.287       .  A
O1787     Eu1821   2.446       .  S
O1788      C1796   1.289       .  A
O1788     Eu2576   2.458   1_556  S
O1789      C1795   1.291       .  A
O1790      C1794   1.289       .  A
O1790     Eu1791   2.457   1_556  S
Eu1791     O1801   2.360       .  S
Eu1791     O1793   2.350   1_554  S
Eu1791     O1792   2.352       .  S
O1792     Eu1821   2.339       .  S
O1793     Eu1819   2.353   1_556  S
C1794      C2248   1.437       .  S
C1795      C2067   1.431       .  S
C1796      C2188   1.434       .  S
C1797      C2227   1.428       .  S
H1798      O1799   0.966       .  S
O1799     Eu2576   2.355       .  S
O1799     Eu1818   2.361       .  S
H1800      O1801   0.966       .  S
O1801     Eu1819   2.352       .  S
O1801     Eu1821   2.349       .  S
O1802      C2581   1.291       .  A
O1802     Eu1818   2.467       .  S
O1803      C1826   1.289       .  A
O1803     Eu2575   2.456   1_545  S
O1804      C1827   1.290       .  A
O1804     Eu1820   2.464       .  S
O1805      C1828   1.291       .  A
O1805     Eu1821   2.468       .  S
O1806      C1829   1.288       .  A
O1806     Eu1821   2.452       .  S
O1807      C1830   1.289       .  A
O1807     Eu1820   2.456   1_556  S
O1808      C1831   1.288       .  A
O1808     Eu1822   2.449       .  S
O1809      C2588   1.296   1_545  A
O1810      C1831   1.294       .  A
O1810     Eu1820   2.481       .  S
O1811      C1832   1.281       .  A
O1811     Eu1821   2.412       .  S
O1812      C2583   1.290       .  A
O1812     Eu1818   2.459       .  S
O1813     Eu2575   2.462   1_546  S
O1814      C1829   1.291       .  A
O1814     Eu1819   2.470       .  S
O1815     Eu1818   2.461       .  S
O1816      C1825   1.289       .  A
O1816     Eu1822   2.456       .  S
O1817      C1826   1.290       .  A
Eu1818     O2580   2.347       .  S
Eu1819     O2559   2.448       .  S
Eu1819     O2569   2.447   1_554  S
Eu1819     O1823   2.344       .  S
Eu1820     O2544   2.468   1_544  S
Eu1820     O2555   2.355   1_545  S
Eu1820     O1834   2.356       .  S
Eu1820     O1824   2.352       .  S
Eu1821     O1823   2.354       .  S
Eu1821     O1836   2.352       .  S
Eu1822     O1834   2.366       .  S
Eu1822     O1824   2.364       .  S
O1824     Eu2574   2.337   1_545  S
C1825      C2202   1.431       .  S
C1825      O2558   1.288       .  A
C1826      C2069   1.433       .  S
C1827      C2155   1.437       .  S
C1827      O2568   1.288   1_545  A
C1828      C2080   1.442       .  S
C1829      C2150   1.438       .  S
C1830      C2053   1.434       .  S
C1831      C2221   1.438       .  S
C1832      C2126   1.427       .  S
C1832      O2565   1.296       .  A
H1833      O1834   0.965       .  S
H1835      O1836   0.965       .  S
O1837      C1848   1.294       .  A
O1837     Eu1873   2.484       .  S
O1838      C1849   1.297       .  A
O1838     Eu1872   2.502       .  S
O1839      C1850   1.284       .  A
O1839     Eu1845   2.430       .  S
O1840      C1851   1.289       .  A
O1840     Eu1845   2.460       .  S
O1841      C1851   1.292       .  A
O1841     Eu1875   2.473       .  S
O1842      C1850   1.293       .  A
O1842     Eu1874   2.474       .  S
O1843      C1849   1.291       .  A
O1843     Eu1845   2.473       .  S
O1844      C1848   1.289       .  A
O1844     Eu1845   2.456       .  S
Eu1845     O1855   2.355       .  S
Eu1845     O1847   2.362       .  S
Eu1845     O1846   2.349       .  S
Eu1845     O1853   2.355       .  S
O1846     Eu1875   2.367       .  S
O1846     Eu1872   2.360       .  S
O1847     Eu1873   2.359       .  S
O1847     Eu1874   2.360       .  S
C1848      C2240   1.444       .  S
C1849      C2117   1.459       .  S
C1850      C2215   1.428       .  S
C1851      C2167   1.442       .  S
H1852      O1853   0.965       .  S
O1853     Eu1874   2.348       .  S
O1853     Eu1872   2.349       .  S
H1854      O1855   0.966       .  S
O1855     Eu1873   2.361       .  S
O1855     Eu1875   2.353       .  S
O1856      C1879   1.294       .  A
O1856     Eu1872   2.480       .  S
O1857      C1880   1.294       .  A
O1857     Eu1873   2.486       .  S
O1858      C1881   1.293       .  A
O1858     Eu1874   2.479       .  S
O1859      C1882   1.290       .  A
O1859     Eu1875   2.458       .  S
O1860      C1883   1.295       .  A
O1860     Eu1875   2.486       .  S
O1861      C1884   1.289       .  A
O1861     Eu1874   2.455       .  S
O1862      C1885   1.294       .  A
O1862     Eu1876   2.486       .  S
O1863      C1886   1.287       .  A
O1863     Eu1876   2.444       .  S
O1864      C1885   1.289       .  A
O1864     Eu1874   2.457       .  S
O1865      C1886   1.293       .  A
O1865     Eu1875   2.478       .  S
O1866      C1881   1.290       .  A
O1866     Eu1872   2.459       .  S
O1867      C1884   1.291       .  A
O1867     Eu1873   2.461       .  S
O1868      C1883   1.288       .  A
O1868     Eu1873   2.449       .  S
O1869      C1882   1.290       .  A
O1869     Eu1872   2.458       .  S
O1870      C1879   1.288       .  A
O1870     Eu1876   2.449       .  S
O1871      C1880   1.295       .  A
O1871     Eu1876   2.491       .  S
Eu1872     O1890   2.363       .  S
Eu1872     O1878   2.361       .  S
Eu1873     O1877   2.348       .  S
Eu1873     O1888   2.366       .  S
Eu1874     O1888   2.373       .  S
Eu1874     O1878   2.349       .  S
Eu1875     O1877   2.351       .  S
Eu1875     O1890   2.361       .  S
Eu1876     O1877   2.350       .  S
Eu1876     O1888   2.348       .  S
Eu1876     O1890   2.371       .  S
Eu1876     O1878   2.358       .  S
C1879      C2198   1.437       .  S
C1880      C2114   1.462       .  S
C1881      C2082   1.444       .  S
C1882      C2144   1.433       .  S
C1883      C2093   1.442       .  S
C1884      C2137   1.432       .  S
C1885      C2130   1.446       .  S
C1886      C2210   1.435   1_545  S
H1887      O1888   0.966       .  S
H1889      O1890   0.965       .  S
O1891      C1902   1.294       .  A
O1891     Eu1927   2.485       .  S
O1892      C1903   1.295       .  A
O1892     Eu1926   2.490       .  S
O1893      C1904   1.287       .  A
O1893     Eu1899   2.447       .  S
O1894      C1905   1.292       .  A
O1894     Eu1899   2.472       .  S
O1895      C1905   1.287       .  A
O1895     Eu1929   2.443       .  S
O1896      C1904   1.292       .  A
O1896     Eu1928   2.472       .  S
O1897      C1903   1.290       .  A
O1897     Eu1899   2.463       .  S
O1898      C1902   1.291       .  A
O1898     Eu1899   2.469       .  S
Eu1899     O1909   2.358       .  S
Eu1899     O1901   2.354       .  S
Eu1899     O1900   2.350       .  S
Eu1899     O1907   2.361       .  S
O1900     Eu1929   2.349       .  S
O1900     Eu1926   2.352       .  S
O1901     Eu1927   2.350       .  S
O1901     Eu1928   2.344       .  S
C1902      C2262   1.451       .  S
C1903      C2161   1.451       .  S
C1904      C2178   1.435       .  S
C1905      C2089   1.434       .  S
H1906      O1907   0.965       .  S
O1907     Eu1928   2.361       .  S
O1907     Eu1926   2.359       .  S
H1908      O1909   0.966       .  S
O1909     Eu1927   2.363       .  S
O1909     Eu1929   2.371       .  S
O1910      C1933   1.294       .  A
O1910     Eu1926   2.485       .  S
O1911      C1934   1.293       .  A
O1911     Eu1927   2.480       .  S
O1912      C1935   1.287       .  A
O1912     Eu1928   2.445       .  S
O1913      C1936   1.293       .  A
O1913     Eu1929   2.477       .  S
O1914      C1937   1.288       .  A
O1914     Eu1929   2.451       .  S
O1915      C1938   1.293       .  A
O1915     Eu1928   2.482       .  S
O1916      C1939   1.292       .  A
O1916     Eu1930   2.472       .  S
O1917      C1940   1.287       .  A
O1917     Eu1930   2.443       .  S
O1918      C1939   1.288       .  A
O1918     Eu1928   2.451       .  S
O1919      C1940   1.292       .  A
O1919     Eu1929   2.469       .  S
O1920      C1935   1.291       .  A
O1920     Eu1926   2.460       .  S
O1921      C1938   1.286       .  A
O1921     Eu1927   2.440       .  S
O1922      C1937   1.288       .  A
O1922     Eu1927   2.450       .  S
O1923      C1936   1.290       .  A
O1923     Eu1926   2.458       .  S
O1924      C1933   1.292       .  A
O1924     Eu1930   2.476       .  S
O1925      C1934   1.289       .  A
O1925     Eu1930   2.457       .  S
Eu1926     O1944   2.358       .  S
Eu1926     O1932   2.363       .  S
Eu1927     O1931   2.351       .  S
Eu1927     O1942   2.357       .  S
Eu1928     O1942   2.351       .  S
Eu1928     O1932   2.366       .  S
Eu1929     O1931   2.348       .  S
Eu1929     O1944   2.346       .  S
Eu1930     O1931   2.354       .  S
Eu1930     O1942   2.356       .  S
Eu1930     O1944   2.359       .  S
Eu1930     O1932   2.350       .  S
C1933      C2258   1.451       .  S
C1934      C2192   1.442       .  S
C1935      C2105   1.429       .  S
C1936      C2234   1.443       .  S
C1937      C2102   1.427       .  S
C1938      C2249   1.437       .  S
C1939      C2057   1.437       .  S
C1940      C2175   1.434       .  S
H1941      O1942   0.966       .  S
H1943      O1944   0.965       .  S
O1945      C1956   1.293       .  A
O1945     Eu1981   2.478       .  S
O1946      C1957   1.289       .  A
O1946     Eu1980   2.452       .  S
O1947      C1958   1.290       .  A
O1947     Eu1953   2.462       .  S
O1948      C1959   1.291       .  A
O1948     Eu1953   2.465       .  S
O1949      C1959   1.292       .  A
O1949     Eu1983   2.470       .  S
O1950      C1958   1.287       .  A
O1950     Eu1982   2.449       .  S
O1951      C1957   1.294       .  A
O1951     Eu1953   2.485       .  S
O1952      C1956   1.291       .  A
O1952     Eu1953   2.464       .  S
Eu1953     O1963   2.362       .  S
Eu1953     O1955   2.355       .  S
Eu1953     O1954   2.353       .  S
Eu1953     O1961   2.357       .  S
O1954     Eu1983   2.356       .  S
O1954     Eu1980   2.358       .  S
O1955     Eu1981   2.353       .  S
O1955     Eu1982   2.342       .  S
C1956      C2223   1.445       .  S
C1957      C2132   1.441       .  S
C1958      C2203   1.434       .  S
C1959      C2065   1.441       .  S
H1960      O1961   0.966       .  S
O1961     Eu1982   2.348       .  S
O1961     Eu1980   2.366       .  S
H1962      O1963   0.966       .  S
O1963     Eu1981   2.360       .  S
O1963     Eu1983   2.358       .  S
O1964      C1987   1.292       .  A
O1964     Eu1980   2.476       .  S
O1965      C1988   1.292       .  A
O1965     Eu1981   2.475       .  S
O1966      C1989   1.291       .  A
O1966     Eu1982   2.468       .  S
O1967      C1990   1.289       .  A
O1967     Eu1983   2.456       .  S
O1968      C1991   1.292       .  A
O1968     Eu1983   2.474       .  S
O1969      C1992   1.290       .  A
O1969     Eu1982   2.462       .  S
O1970      C1993   1.293       .  A
O1970     Eu1984   2.474       .  S
O1971      C1994   1.289       .  A
O1971     Eu1984   2.457       .  S
O1972      C1993   1.281       .  A
O1972     Eu1982   2.413       .  S
O1973      C1994   1.293       .  A
O1973     Eu1983   2.476       .  S
O1974      C1989   1.289       .  A
O1974     Eu1980   2.459       .  S
O1975      C1992   1.291       .  A
O1975     Eu1981   2.469       .  S
O1976      C1991   1.289       .  A
O1976     Eu1981   2.452       .  S
O1977      C1990   1.291       .  A
O1977     Eu1980   2.469       .  S
O1978      C1987   1.292       .  A
O1978     Eu1984   2.470       .  S
O1979      C1988   1.294       .  A
O1979     Eu1984   2.483       .  S
Eu1980     O1998   2.350       .  S
Eu1980     O1986   2.349       .  S
Eu1981     O1985   2.354       .  S
Eu1981     O1996   2.355       .  S
Eu1982     O1996   2.366       .  S
Eu1982     O1986   2.354       .  S
Eu1983     O1985   2.349       .  S
Eu1983     O1998   2.365       .  S
Eu1984     O1985   2.353       .  S
Eu1984     O1996   2.356       .  S
Eu1984     O1998   2.365       .  S
Eu1984     O1986   2.353       .  S
C1987      C2212   1.447       .  S
C1988      C2127   1.453       .  S
C1989      C2139   1.439       .  S
C1990      C2078   1.438       .  S
C1991      C2151   1.439       .  S
C1992      C2084   1.439       .  S
C1993      C2120   1.421       .  S
C1994      C2200   1.439       .  S
H1995      O1996   0.965       .  S
H1997      O1998   0.965       .  S
O1999      C2010   1.292       .  A
O1999     Eu2791   2.471   1_545  S
O2000      C2011   1.287       .  A
O2000     Eu2790   2.445   1_545  S
O2001      C2768   1.291   1_545  A
O2001     Eu2007   2.463       .  S
O2002      C2013   1.291       .  A
O2002     Eu2007   2.471       .  S
O2003      C2013   1.289       .  A
O2004      C2012   1.292       .  A
O2004     Eu2036   2.468       .  S
O2005      C2011   1.289       .  A
O2005     Eu2007   2.455       .  S
O2006     Eu2007   2.425       .  S
Eu2007     O2008   2.350       .  S
Eu2007     O2771   2.349   1_545  S
O2008     Eu2790   2.361   1_545  S
O2009     Eu2035   2.347       .  S
C2010      C2259   1.425       .  S
C2011      C2166   1.427       .  S
C2012      C2104   1.435       .  S
C2012      O2757   1.288       .  A
C2013      C2235   1.441       .  S
H2014      O2771   0.965       .  S
O2015     Eu2763   2.349       .  S
O2015     Eu2036   2.362       .  S
O2015     Eu2034   2.353       .  S
O2015      H2770   0.965       .  S
H2016      O2017   0.965       .  S
O2017     Eu2791   2.356   1_545  S
O2017     Eu2037   2.346       .  S
O2018      C2041   1.292       .  A
O2018     Eu2034   2.472       .  S
O2019      C2042   1.288       .  A
O2019     Eu2035   2.450       .  S
O2020      C2043   1.290       .  A
O2020     Eu2036   2.460       .  S
O2021      C2044   1.290       .  A
O2022      C2045   1.288       .  A
O2022     Eu2037   2.452       .  S
O2023      C2046   1.295       .  A
O2024      C2047   1.290       .  A
O2024     Eu2038   2.458       .  S
O2025      C2048   1.293       .  A
O2025     Eu2038   2.478       .  S
O2026      C2047   1.293       .  A
O2027      C2048   1.281       .  A
O2027     Eu2793   2.411       .  S
O2028      C2043   1.292       .  A
O2028     Eu2034   2.471       .  S
O2029      C2046   1.286       .  A
O2029     Eu2035   2.438       .  S
O2030      C2801   1.291       .  A
O2030     Eu2035   2.469       .  S
O2031      C2044   1.290       .  A
O2031     Eu2790   2.461   1_545  S
O2032     Eu2038   2.481       .  S
O2033      C2042   1.294       .  A
O2033     Eu2038   2.479       .  S
Eu2034     O2756   2.455       .  S
Eu2034     O2787   2.451       .  S
Eu2034     O2764   2.364       .  S
Eu2034     O2040   2.348       .  S
Eu2035     O2755   2.479       .  S
Eu2035     O2773   2.346       .  S
Eu2035     O2039   2.345       .  S
Eu2035     O2050   2.368       .  S
Eu2036     O2040   2.356       .  S
Eu2037     O2783   2.407   1_545  S
Eu2037     O2795   2.354   1_545  S
Eu2037     O2808   2.357   1_545  S
Eu2038     O2039   2.351       .  S
Eu2038     O2050   2.364       .  S
Eu2038     O2052   2.350       .  S
O2039     Eu2793   2.349       .  S
C2041      C2213   1.450       .  S
C2042      C2163   1.438       .  S
C2043      C2092   1.438       .  S
C2044      C2141   1.437       .  S
C2045      C2096   1.442       .  S
C2045      O2786   1.293   1_545  A
C2046      C2179   1.438       .  S
C2047      C2238   1.443       .  S
C2048      C2115   1.423       .  S
H2049      O2050   0.965       .  S
H2051      O2052   0.966       .  S
O2052     Eu2793   2.362       .  S
C2053      C2054   1.205       .  T
C2055      C2056   1.204       .  T
C2057      C2058   1.207       .  T
C2059      C2060   1.208       .  T
C2061      C2062   1.344       .  D
C2061      H2063   1.086       .  S
C2062      H2064   1.086       .  S
C2065      C2066   1.209       .  T
C2067      C2068   1.204       .  T
C2069      C2070   1.205       .  T
C2071      C2072   1.207       .  T
C2073      H2075   1.086       .  S
C2074      H2076   1.087       .  S
C2077      C2078   1.208       .  T
C2079      C2080   1.210       .  T
C2081      C2082   1.211       .  T
C2083      C2084   1.209       .  T
C2085      C2086   1.345       .  D
C2085      H2087   1.086       .  S
C2086      H2088   1.086       .  S
C2089      C2090   1.206       .  T
C2091      C2092   1.208       .  T
C2093      C2094   1.210       .  T
C2095      C2096   1.210       .  T
C2097      C2441   1.473       .  S
C2097      C2098   1.345       .  D
C2097      H2099   1.086       .  S
C2098      H2100   1.086       .  S
C2101      C2102   1.201       .  T
C2103      C2104   1.206       .  T
C2105      C2106   1.202       .  T
C2107      C2108   1.207       .  T
C2109      C2110   1.339       .  D
C2109      H2111   1.087       .  S
C2110      H2112   1.087       .  S
C2113      C2419   1.462   1_545  S
C2113      C2114   1.222       .  T
C2115      C2116   1.199       .  T
C2117      C2118   1.220       .  T
C2119      C2120   1.197       .  T
C2121      C2122   1.330       .  D
C2121      H2123   1.087       .  S
C2122      H2124   1.087       .  S
C2125      C2126   1.202       .  T
C2127      C2128   1.217       .  T
C2129      C2130   1.212       .  T
C2133      C2134   1.344       .  D
C2133      H2135   1.086       .  S
C2134      H2136   1.086       .  S
C2137      C2138   1.204       .  T
C2139      C2140   1.208       .  T
C2141      C2142   1.207       .  T
C2143      C2144   1.205       .  T
C2145      C2146   1.342       .  D
C2145      H2147   1.087       .  S
C2146      H2148   1.087       .  S
C2149      C2150   1.208       .  T
C2151      C2152   1.208       .  T
C2153      C2154   1.206       .  T
C2155      C2156   1.207       .  T
C2157      C2158   1.344       .  D
C2157      H2159   1.086       .  S
C2158      H2160   1.086       .  S
C2161      C2162   1.215       .  T
C2163      C2164   1.208       .  T
C2165      C2166   1.201       .  T
C2167      C2168   1.210       .  T
C2169      C2170   1.339       .  D
C2169      H2171   1.087       .  S
C2170      H2172   1.087       .  S
C2173      C2174   1.209       .  T
C2177      C2178   1.206       .  T
C2179      C2180   1.208       .  T
C2181      C2182   1.341       .  D
C2181      H2183   1.086       .  S
C2182      H2184   1.087       .  S
C2185      C2347   1.434   1_545  S
C2185      C2186   1.205       .  T
C2187      C2188   1.205       .  T
C2189      C2190   1.207       .  T
C2191      C2192   1.210       .  T
C2193      C2194   1.343       .  D
C2193      H2195   1.087       .  S
C2194      H2196   1.086       .  S
C2197      C2198   1.207       .  T
C2199      C2337   1.440       .  S
C2199      C2200   1.209       .  T
C2201      C2202   1.204       .  T
C2203      C2204   1.205       .  T
C2205      C2206   1.345       .  D
C2205      H2207   1.086       .  S
C2206      H2208   1.086       .  S
C2209      C2966   1.202       .  T
C2210      C2965   1.206       .  T
C2211      C2212   1.213       .  T
C2213      C2214   1.214       .  T
C2215      C2216   1.202       .  T
C2217      C2218   1.335       .  D
C2217      H2219   1.087       .  S
C2218      H2220   1.087       .  S
C2221      C2222   1.208       .  T
C2223      C2224   1.212       .  T
C2225      C2226   1.206       .  T
C2227      C2228   1.202       .  T
C2229      C2230   1.342       .  D
C2229      H2231   1.086       .  S
C2230      H2232   1.087       .  S
C2233      C2234   1.211       .  T
C2235      C2236   1.209       .  T
C2237      C2238   1.211       .  T
C2239      C2240   1.211       .  T
C2241      H2243   1.086   1_655  S
C2242      H2244   1.086       .  S
C2245      C2246   1.206       .  T
C2247      C2248   1.207       .  T
C2249      C2250   1.207       .  T
C2251      C3008   1.206       .  T
C2252      C3007   1.211   1_545  T
C2253      C2254   1.344       .  D
C2253      H2255   1.086       .  S
C2254      H2256   1.086       .  S
C2257      C2258   1.215       .  T
C2259      C2260   1.200       .  T
C2261      C2269   1.450       .  S
C2261      C2262   1.215       .  T
C2263      C2264   1.199       .  T
C2265      C2266   1.332       .  D
C2265      H2267   1.087       .  S
C2266      H2268   1.087       .  S
C2269      N2270   1.369       .  A
C2269      N2274   1.357       .  A
N2270      C2271   1.371       .  A
C2271      N2272   1.347       .  A
C2271      C3021   1.476       .  S
N2272      C2273   1.345       .  A
C2273      N2274   1.354       .  A
C2273      C3020   1.417       .  S
C2275      N2280   1.361       .  A
C2275      C3013   1.456       .  S
N2276      C2277   1.371       .  A
C2277      N2278   1.346       .  A
C2277      C3022   1.475       .  S
N2278      C2279   1.344       .  A
C2279      C3016   1.423       .  S
C2281      N2282   1.356       .  A
C2281      N2286   1.361       .  A
C2281      C3007   1.444       .  S
N2282      C2283   1.358       .  A
C2283      N2284   1.360       .  A
C2283      C3010   1.475       .  S
N2284      C2285   1.357       .  A
C2285      N2286   1.361       .  A
C2285      C3006   1.442       .  S
C2287      N2288   1.358       .  A
C2287      N2292   1.360       .  A
C2287      C3002   1.440       .  S
N2288      C2289   1.358       .  A
C2289      N2290   1.359       .  A
C2289      C3009   1.477       .  S
N2290      C2291   1.355       .  A
C2291      N2292   1.360       .  A
C2291      C3003   1.439       .  S
C2293      N2294   1.357       .  A
C2293      N2298   1.360       .  A
C2293      C2993   1.444       .  S
N2294      C2295   1.359       .  A
C2295      N2296   1.361       .  A
C2295      C2997   1.479       .  S
N2296      C2297   1.358       .  A
C2297      N2298   1.361       .  A
C2297      C2995   1.442       .  S
C2299      N2300   1.357       .  A
C2299      N2304   1.359       .  A
C2299      C2992   1.440       .  S
N2300      C2301   1.357       .  A
C2301      N2302   1.356       .  A
C2301      C2989   1.435       .  S
N2302      C2303   1.360       .  A
C2303      N2304   1.360       .  A
C2303      C2998   1.481       .  S
C2305      N2306   1.356   1_554  A
C2305      N2310   1.367       .  A
C2305      C2984   1.446       .  S
N2306      C2307   1.354       .  A
C2307      N2308   1.346       .  A
C2307      C2981   1.418       .  S
N2308      C2309   1.348   1_556  A
C2309      N2310   1.369       .  A
C2309      C2985   1.475       .  S
C2311      N2312   1.357       .  A
C2311      N2316   1.367       .  A
C2311      C2978   1.449       .  S
N2312      C2313   1.355       .  A
C2313      N2314   1.346       .  A
C2313      C2980   1.418       .  S
N2314      C2315   1.347       .  A
C2315      N2316   1.370       .  A
C2315      C2986   1.475       .  S
C2317      N2322   1.355       .  A
C2317      C2972   1.430       .  S
N2318      C2319   1.355       .  A
C2319      N2320   1.362       .  A
C2319      C2973   1.474       .  S
C2321      N2322   1.356   1_455  A
C2323      N2324   1.359       .  A
C2323      N2328   1.360       .  A
C2323      C2967   1.442       .  S
N2324      C2325   1.362       .  A
C2325      N2326   1.355       .  A
C2325      C2974   1.475       .  S
N2326      C2327   1.354       .  A
C2327      N2328   1.359       .  A
C2327      C2965   1.436       .  S
C2329      N2330   1.356       .  A
C2329      N2334   1.355       .  A
C2329      C2960   1.434       .  S
N2330      C2331   1.358       .  A
C2331      N2332   1.362       .  A
C2331      C2961   1.476       .  S
N2332      C2333   1.358       .  A
C2333      N2334   1.356       .  A
C2333      C2957   1.436       .  S
C2335      N2336   1.361       .  A
C2335      N2340   1.357       .  A
C2335      C2953   1.442       .  S
N2336      C2337   1.360       .  A
C2337      N2338   1.356       .  A
N2338      C2339   1.357       .  A
C2339      N2340   1.361       .  A
C2339      C2962   1.477       .  S
C2341      N2342   1.357       .  A
C2341      N2346   1.354       .  A
N2342      C2343   1.358       .  A
C2343      N2344   1.361       .  A
C2343      C2947   1.442       .  S
N2344      C2345   1.364       .  A
C2345      N2346   1.356       .  A
C2345      C2949   1.479       .  S
C2347      N2348   1.353       .  A
N2348      C2349   1.355       .  A
C2349      N2350   1.364       .  A
C2349      C2950   1.478       .  S
N2350      C2351   1.362       .  A
C2351      C2943   1.443       .  S
C2353      N2354   1.355       .  A
C2353      N2358   1.359       .  A
C2353      C2936   1.437       .  S
N2354      C2355   1.359       .  A
C2355      N2356   1.356       .  A
C2355      C2937   1.472       .  S
N2356      C2357   1.355       .  A
C2357      N2358   1.359       .  A
C2357      C2933   1.436       .  S
C2359      N2360   1.357       .  A
C2359      N2364   1.354       .  A
C2359      C2932   1.433       .  S
N2360      C2361   1.358       .  A
C2361      N2362   1.356       .  A
C2361      C2929   1.434       .  S
N2362      C2363   1.359       .  A
C2363      N2364   1.356       .  A
C2363      C2938   1.471       .  S
C2365      N2366   1.355       .  A
C2365      N2370   1.351       .  A
C2365      C2921   1.425       .  S
N2366      C2367   1.358       .  A
C2367      N2368   1.362       .  A
C2367      C2926   1.476       .  S
N2368      C2369   1.358       .  A
C2369      N2370   1.352       .  A
C2369      C2924   1.428       .  S
C2371      N2372   1.360       .  A
C2371      N2376   1.356       .  A
C2371      C2920   1.442       .  S
N2372      C2373   1.361       .  A
C2373      N2374   1.358       .  A
C2373      C2918   1.444       .  S
N2374      C2375   1.361       .  A
C2375      N2376   1.357       .  A
C2375      C2925   1.477       .  S
C2377      N2382   1.357   1_554  A
C2377      C2912   1.436       .  S
N2378      C2379   1.360       .  A
C2379      C2913   1.479   1_545  S
N2380      C2381   1.357   1_554  A
C2381      N2382   1.357       .  A
C2381      C2910   1.438       .  S
C2383      N2384   1.357       .  A
C2383      N2388   1.362       .  A
C2383      C2905   1.446       .  S
N2384      C2385   1.358       .  A
C2385      N2386   1.361       .  A
C2385      C2914   1.479       .  S
N2386      C2387   1.358       .  A
C2387      N2388   1.363       .  A
C2387      C2908   1.446       .  S
C2389      N2390   1.353       .  A
C2389      N2394   1.358       .  A
C2389      C2899   1.432       .  S
N2390      C2391   1.353       .  A
C2391      N2392   1.355       .  A
C2391      C2898   1.426       .  S
N2392      C2393   1.359       .  A
C2393      N2394   1.359       .  A
C2393      C2902   1.474       .  S
C2395      N2396   1.358       .  A
C2395      N2400   1.359       .  A
N2396      C2397   1.359       .  A
C2397      N2398   1.358       .  A
C2397      C2901   1.475       .  S
N2398      C2399   1.354       .  A
C2399      N2400   1.359       .  A
C2399      C2896   1.436       .  S
C2401      N2402   1.347       .  A
C2401      N2406   1.354       .  A
C2401      C2885   1.418       .  S
N2402      C2403   1.349       .  A
C2403      N2404   1.369       .  A
C2403      C2890   1.475       .  S
N2404      C2405   1.365       .  A
C2405      N2406   1.356       .  A
C2405      C2887   1.446       .  S
C2407      N2412   1.364       .  A
C2407      C2881   1.452       .  S
N2408      C2409   1.347       .  A
C2409      C2889   1.473       .  S
N2410      C2411   1.356       .  A
C2411      N2412   1.363       .  A
C2411      C2884   1.447       .  S
C2413      N2414   1.359       .  A
C2413      N2418   1.344       .  A
C2413      C2875   1.426       .  S
N2414      C2415   1.362       .  A
C2415      N2416   1.373       .  A
C2415      C2874   1.463       .  S
N2416      C2417   1.374       .  A
C2417      N2418   1.346       .  A
C2417      C2877   1.480       .  S
C2419      N2420   1.372       .  A
N2420      C2421   1.373       .  A
C2421      N2422   1.346       .  A
C2421      C2878   1.481       .  S
N2422      C2423   1.344       .  A
C2423      C2872   1.424       .  S
C2425      N2426   1.354       .  A
C2425      N2430   1.356       .  A
C2425      C2862   1.430       .  S
N2426      C2427   1.356       .  A
C2427      N2428   1.363       .  A
C2427      C2866   1.476       .  S
N2428      C2429   1.359       .  A
C2429      N2430   1.357       .  A
C2429      C2863   1.439       .  S
C2431      N2432   1.354       .  A
C2431      N2436   1.357       .  A
C2431      C2857   1.429       .  S
C2433      N2434   1.363       .  A
C2433      C2865   1.475       .  S
C2435      N2436   1.357       .  A
C2435      C2859   1.437       .  S
C2437      N2438   1.361       .  A
C2437      N2442   1.357       .  A
C2437      C2851   1.442       .  S
N2438      C2439   1.361       .  A
C2439      N2440   1.354       .  A
C2439      C2850   1.438       .  S
N2440      C2441   1.358       .  A
C2441      N2442   1.358       .  A
C2443      N2444   1.356       .  A
C2443      N2448   1.357       .  A
C2443      C2847   1.437       .  S
N2444      C2445   1.358       .  A
C2445      N2446   1.361       .  A
C2445      C2854   1.477       .  S
N2446      C2447   1.358       .  A
C2447      N2448   1.358       .  A
C2447      C2846   1.439       .  S
C2449      N2450   1.375       .  A
C2449      N2454   1.362       .  A
C2449      C2839   1.463       .  S
N2450      C2451   1.374       .  A
C2451      N2452   1.344       .  A
C2451      C2842   1.479       .  S
N2452      C2453   1.341       .  A
C2453      N2454   1.358       .  A
C2453      C2837   1.422       .  S
C2455      N2460   1.359       .  A
C2455      C2833   1.458       .  S
N2456      C2457   1.374       .  A
C2457      N2458   1.345       .  A
C2457      C2841   1.481       .  S
N2458      C2459   1.344       .  A
C2459      C2835   1.418       .  S
C2461      N2462   1.354       .  A
C2461      N2466   1.359   1_554  A
C2461      C2826   1.434       .  S
N2462      C2463   1.355       .  A
C2463      N2464   1.360       .  A
C2463      C2829   1.472       .  S
N2464      C2465   1.357   1_554  A
C2465      N2466   1.359       .  A
C2465      C2827   1.439       .  S
C2467      N2468   1.359       .  A
C2467      N2472   1.355       .  A
C2467      C2824   1.435       .  S
N2468      C2469   1.359       .  A
C2469      N2470   1.356       .  A
C2469      C2822   1.439       .  S
N2470      C2471   1.360       .  A
C2471      N2472   1.355       .  A
C2471      C2830   1.473       .  S
C2473      N2474   1.358       .  A
C2473      N2478   1.357       .  A
C2473      C2816   1.437       .  S
N2474      C2475   1.358       .  A
C2475      N2476   1.355       .  A
C2475      C2814   1.434       .  S
N2476      C2477   1.359       .  A
C2477      N2478   1.359       .  A
C2477      C2817   1.475       .  S
C2479      N2480   1.358       .  A
C2479      C2811   1.440       .  S
N2480      C2481   1.358   1_655  A
N2482      C2483   1.359       .  A
C2483      N2484   1.360       .  A
C2483      C2818   1.476       .  S
O2485      C2496   1.290       .  A
O2485     Eu2521   2.460       .  S
O2486      C2497   1.290       .  A
O2486     Eu2520   2.463       .  S
O2487      C2498   1.288       .  A
O2487     Eu2493   2.450       .  S
O2488      C2499   1.290       .  A
O2488     Eu2493   2.466       .  S
O2489      C2499   1.290       .  A
O2489     Eu2523   2.460       .  S
O2490      C2498   1.291       .  A
O2490     Eu2522   2.465       .  S
O2491      C2497   1.286       .  A
O2491     Eu2493   2.441       .  S
O2492      C2496   1.281       .  A
O2492     Eu2493   2.413       .  S
Eu2493     O2503   2.351       .  S
Eu2493     O2495   2.356       .  S
Eu2493     O2494   2.337       .  S
Eu2493     O2501   2.351       .  S
O2494     Eu2523   2.354       .  S
O2494     Eu2520   2.347       .  S
O2495     Eu2521   2.346       .  S
O2495     Eu2522   2.350       .  S
C2496      C3019   1.417       .  S
C2497      C2942   1.430       .  S
C2498      C3008   1.435       .  S
C2499      C2864   1.439       .  S
H2500      O2501   0.966       .  S
O2501     Eu2522   2.359       .  S
O2501     Eu2520   2.355       .  S
H2502      O2503   0.966       .  S
O2503     Eu2521   2.353       .  S
O2503     Eu2523   2.353       .  S
O2504      C2527   1.290       .  A
O2504     Eu2520   2.458       .  S
O2505      C2528   1.287       .  A
O2505     Eu2521   2.448       .  S
O2506      C2529   1.292       .  A
O2506     Eu2522   2.469       .  S
O2507      C2530   1.289       .  A
O2507     Eu2523   2.455       .  S
O2508      C2531   1.291       .  A
O2508     Eu2523   2.467       .  S
O2509      C2532   1.291       .  A
O2509     Eu2522   2.466       .  S
O2510      C2533   1.293       .  A
O2510     Eu2524   2.476       .  S
O2511      C2534   1.290       .  A
O2511     Eu2524   2.460       .  S
O2512      C2533   1.288       .  A
O2512     Eu2522   2.450       .  S
O2513      C2534   1.291       .  A
O2513     Eu2523   2.468       .  S
O2514      C2529   1.289       .  A
O2514     Eu2520   2.455       .  S
O2515      C2532   1.291       .  A
O2515     Eu2521   2.467       .  S
O2516      C2531   1.288       .  A
O2516     Eu2521   2.447       .  S
O2517      C2530   1.291       .  A
O2517     Eu2520   2.463       .  S
O2518      C2527   1.283       .  A
O2518     Eu2524   2.421       .  S
O2519      C2528   1.290       .  A
O2519     Eu2524   2.460       .  S
Eu2520     O2538   2.353       .  S
Eu2520     O2526   2.351       .  S
Eu2521     O2525   2.354       .  S
Eu2521     O2536   2.349       .  S
Eu2522     O2536   2.359       .  S
Eu2522     O2526   2.348       .  S
Eu2523     O2525   2.350       .  S
Eu2523     O2538   2.355       .  S
Eu2524     O2525   2.345       .  S
Eu2524     O2536   2.340       .  S
Eu2524     O2538   2.361       .  S
Eu2524     O2526   2.352       .  S
C2527      C2982   1.418       .  S
C2528      C2946   1.433       .  S
C2529      C2909   1.437       .  S
C2530      C2815   1.436       .  S
C2531      C2930   1.433       .  S
C2532      C2812   1.439       .  S
C2533      C2828   1.438       .  S
C2534      C3001   1.438       .  S
H2535      O2536   0.965       .  S
H2537      O2538   0.965       .  S
O2539      C2550   1.294       .  A
O2539     Eu2575   2.485   1_556  S
O2540      C2551   1.287       .  A
O2540     Eu2574   2.446       .  S
O2541      C2552   1.292       .  A
O2542      C2553   1.294       .  A
O2542     Eu2547   2.484       .  S
O2543      C2553   1.290       .  A
O2543     Eu2577   2.461       .  S
O2544      C2552   1.291       .  A
O2545      C2551   1.291       .  A
O2546      C2550   1.286       .  A
O2546     Eu2547   2.439   1_556  S
Eu2547     O2557   2.362       .  S
Eu2547     O2549   2.357   1_554  S
Eu2547     O2548   2.345       .  S
O2548     Eu2577   2.351       .  S
O2549     Eu2575   2.351   1_556  S
C2550      C3004   1.438       .  S
C2551      C2823   1.434       .  S
C2552      C2944   1.443       .  S
C2553      C2983   1.446       .  S
H2554      O2555   0.965       .  S
O2555     Eu2574   2.341       .  S
H2556      O2557   0.965       .  S
O2557     Eu2575   2.350       .  S
O2557     Eu2577   2.363       .  S
O2558     Eu2574   2.454   1_545  S
O2559      C2582   1.288       .  A
O2560      C2583   1.290       .  A
O2560     Eu2576   2.460       .  S
O2561      C2584   1.293       .  A
O2561     Eu2577   2.474       .  S
O2562      C2585   1.290       .  A
O2562     Eu2577   2.459       .  S
O2563      C2586   1.292       .  A
O2563     Eu2576   2.470   1_556  S
O2564      C2587   1.294       .  A
O2564     Eu2578   2.483       .  S
O2566      C2587   1.291       .  A
O2566     Eu2576   2.465       .  S
O2567      C2588   1.289       .  A
O2567     Eu2577   2.460       .  S
O2568     Eu2574   2.456       .  S
O2570      C2585   1.294       .  A
O2570     Eu2575   2.480       .  S
O2571     Eu2574   2.404       .  S
O2572      C2581   1.289       .  A
O2572     Eu2578   2.455       .  S
O2573      C2582   1.292       .  A
Eu2575     O2579   2.356       .  S
Eu2576     O2590   2.354       .  S
Eu2576     O2580   2.354       .  S
Eu2577     O2579   2.352       .  S
Eu2577     O2592   2.356       .  S
Eu2578     O2590   2.361       .  S
Eu2578     O2580   2.354       .  S
C2581      C2958   1.436       .  S
C2582      C2825   1.433       .  S
C2583      C2911   1.435       .  S
C2584      C2836   1.419       .  S
C2585      C2906   1.445       .  S
C2586      C2809   1.434       .  S
C2587      C2977   1.449       .  S
C2588      C2882   1.452       .  S
H2589      O2590   0.965       .  S
H2591      O2592   0.966       .  S
O2593      C2604   1.294       .  A
O2593     Eu2629   2.479       .  S
O2594      C2605   1.296       .  A
O2594     Eu2628   2.499       .  S
O2595      C2606   1.287       .  A
O2595     Eu2601   2.444       .  S
O2596      C2607   1.286       .  A
O2596     Eu2601   2.439       .  S
O2597      C2607   1.291       .  A
O2597     Eu2631   2.462       .  S
O2598      C2606   1.289       .  A
O2598     Eu2630   2.455       .  S
O2599      C2605   1.295       .  A
O2599     Eu2601   2.491       .  S
O2600      C2604   1.289       .  A
O2600     Eu2601   2.453       .  S
Eu2601     O2611   2.363       .  S
Eu2601     O2603   2.357       .  S
Eu2601     O2602   2.358       .  S
Eu2601     O2609   2.338       .  S
O2602     Eu2631   2.367       .  S
O2602     Eu2628   2.350       .  S
O2603     Eu2629   2.357       .  S
O2603     Eu2630   2.348       .  S
C2604      C2996   1.441       .  S
C2605      C2873   1.463       .  S
C2606      C2971   1.429       .  S
C2607      C2923   1.428       .  S
H2608      O2609   0.964       .  S
O2609     Eu2630   2.336       .  S
O2609     Eu2628   2.355       .  S
H2610      O2611   0.966       .  S
O2611     Eu2629   2.363       .  S
O2611     Eu2631   2.359       .  S
O2612      C2635   1.295       .  A
O2612     Eu2628   2.489       .  S
O2613      C2636   1.295       .  A
O2613     Eu2629   2.489       .  S
O2614      C2637   1.295       .  A
O2614     Eu2630   2.489       .  S
O2615      C2638   1.291       .  A
O2615     Eu2631   2.466       .  S
O2616      C2639   1.295       .  A
O2616     Eu2631   2.484       .  S
O2617      C2640   1.291       .  A
O2617     Eu2630   2.464       .  S
O2618      C2641   1.290       .  A
O2618     Eu2632   2.461       .  S
O2619      C2642   1.284       .  A
O2619     Eu2632   2.429       .  S
O2620      C2641   1.282       .  A
O2620     Eu2630   2.415       .  S
O2621      C2642   1.293       .  A
O2621     Eu2631   2.477       .  S
O2622      C2637   1.279       .  A
O2622     Eu2628   2.400       .  S
O2623      C2640   1.292       .  A
O2623     Eu2629   2.467       .  S
O2624      C2639   1.286       .  A
O2624     Eu2629   2.438       .  S
O2625      C2638   1.287       .  A
O2625     Eu2628   2.443       .  S
O2626      C2635   1.287       .  A
O2626     Eu2632   2.442       .  S
O2627      C2636   1.292       .  A
O2627     Eu2632   2.476       .  S
Eu2628     O2646   2.351       .  S
Eu2628     O2634   2.354       .  S
Eu2629     O2633   2.346       .  S
Eu2629     O2644   2.355       .  S
Eu2630     O2644   2.370       .  S
Eu2630     O2634   2.348       .  S
Eu2631     O2633   2.347       .  S
Eu2631     O2646   2.357       .  S
Eu2632     O2633   2.342       .  S
Eu2632     O2644   2.342       .  S
Eu2632     O2646   2.364       .  S
Eu2632     O2634   2.346       .  S
C2635      C2954   1.441       .  S
C2636      C2870   1.458       .  S
C2637      C2838   1.422       .  S
C2638      C2900   1.431       .  S
C2639      C2849   1.437       .  S
C2640      C2893   1.439       .  S
C2641      C2886   1.418       .  S
C2642      C2966   1.428       .  S
H2643      O2644   0.965       .  S
H2645      O2646   0.965       .  S
O2647      C2658   1.291       .  A
O2647     Eu2683   2.467       .  S
O2648      C2659   1.295       .  A
O2648     Eu2682   2.486       .  S
O2649      C2660   1.288       .  A
O2649     Eu2655   2.450       .  S
O2650      C2661   1.291       .  A
O2650     Eu2655   2.465       .  S
O2651      C2661   1.289       .  A
O2651     Eu2685   2.459       .  S
O2652      C2660   1.292       .  A
O2652     Eu2684   2.470       .  S
O2653      C2659   1.289       .  A
O2653     Eu2655   2.453       .  S
O2654      C2658   1.293       .  A
O2654     Eu2655   2.478       .  S
Eu2655     O2665   2.356       .  S
Eu2655     O2657   2.348       .  S
Eu2655     O2656   2.357       .  S
Eu2655     O2663   2.360       .  S
O2656     Eu2685   2.347       .  S
O2656     Eu2682   2.356       .  S
O2657     Eu2683   2.352       .  S
O2657     Eu2684   2.343       .  S
C2658      C3018   1.448       .  S
C2659      C2917   1.443       .  S
C2660      C2934   1.435       .  S
C2661      C2845   1.438       .  S
H2662      O2663   0.965       .  S
O2663     Eu2684   2.355       .  S
O2663     Eu2682   2.359       .  S
H2664      O2665   0.966       .  S
O2665     Eu2683   2.361       .  S
O2665     Eu2685   2.367       .  S
O2666      C2689   1.295       .  A
O2666     Eu2682   2.492       .  S
O2667      C2690   1.292       .  A
O2667     Eu2683   2.472       .  S
O2668      C2691   1.288       .  A
O2668     Eu2684   2.450       .  S
O2669      C2692   1.291       .  A
O2669     Eu2685   2.466       .  S
O2670      C2693   1.286       .  A
O2670     Eu2685   2.439       .  S
O2671      C2694   1.294       .  A
O2671     Eu2684   2.482       .  S
O2672      C2695   1.292       .  A
O2672     Eu2686   2.469       .  S
O2673      C2696   1.287       .  A
O2673     Eu2686   2.445       .  S
O2674      C2695   1.287       .  A
O2674     Eu2684   2.446       .  S
O2675      C2696   1.291       .  A
O2675     Eu2685   2.467       .  S
O2676      C2691   1.290       .  A
O2676     Eu2682   2.455       .  S
O2677      C2694   1.288       .  A
O2677     Eu2683   2.449       .  S
O2678      C2693   1.291       .  A
O2678     Eu2683   2.463       .  S
O2679      C2692   1.288       .  A
O2679     Eu2682   2.450       .  S
O2680      C2689   1.293       .  A
O2680     Eu2686   2.481       .  S
O2681      C2690   1.290       .  A
O2681     Eu2686   2.462       .  S
Eu2682     O2700   2.353       .  S
Eu2682     O2688   2.359       .  S
Eu2683     O2687   2.347       .  S
Eu2683     O2698   2.358       .  S
Eu2684     O2698   2.356       .  S
Eu2684     O2688   2.367       .  S
Eu2685     O2687   2.350       .  S
Eu2685     O2700   2.348       .  S
Eu2686     O2687   2.354       .  S
Eu2686     O2698   2.359       .  S
Eu2686     O2700   2.359       .  S
Eu2686     O2688   2.352       .  S
C2689      C3014   1.456       .  S
C2690      C2948   1.442       .  S
C2691      C2861   1.429       .  S
C2692      C2990   1.435       .  S
C2693      C2858   1.429       .  S
C2694      C3005   1.441       .  S
C2695      C2813   1.434       .  S
C2696      C2931   1.432       .  S
H2697      O2698   0.966       .  S
H2699      O2700   0.965       .  S
O2701      C2712   1.291       .  A
O2701     Eu2737   2.466       .  S
O2702      C2713   1.293       .  A
O2702     Eu2736   2.481       .  S
O2703      C2714   1.290       .  A
O2703     Eu2709   2.461       .  S
O2704      C2715   1.294       .  A
O2704     Eu2709   2.483       .  S
O2705      C2715   1.288       .  A
O2705     Eu2739   2.446       .  S
O2706      C2714   1.288       .  A
O2706     Eu2738   2.451       .  S
O2707      C2713   1.290       .  A
O2707     Eu2709   2.464       .  S
O2708      C2712   1.282       .  A
O2708     Eu2709   2.413       .  S
Eu2709     O2719   2.356       .  S
Eu2709     O2711   2.370       .  S
Eu2709     O2710   2.348       .  S
Eu2709     O2717   2.347       .  S
O2710     Eu2739   2.362       .  S
O2710     Eu2736   2.350       .  S
O2711     Eu2737   2.353       .  S
O2711     Eu2738   2.348       .  S
C2712      C2979   1.418       .  S
C2713      C2888   1.446       .  S
C2714      C2959   1.434       .  S
C2715      C2821   1.439       .  S
H2716      O2717   0.965       .  S
O2717     Eu2738   2.353       .  S
O2717     Eu2736   2.362       .  S
H2718      O2719   0.965       .  S
O2719     Eu2737   2.359       .  S
O2719     Eu2739   2.355       .  S
O2720      C2743   1.294       .  A
O2720     Eu2736   2.483       .  S
O2721      C2744   1.288       .  A
O2721     Eu2737   2.452       .  S
O2722      C2745   1.294       .  A
O2722     Eu2738   2.484       .  S
O2723      C2746   1.297       .  A
O2723     Eu2739   2.499       .  S
O2724      C2747   1.297       .  A
O2724     Eu2739   2.497       .  S
O2725      C2748   1.297       .  A
O2725     Eu2738   2.501       .  S
O2726      C2749   1.296       .  A
O2726     Eu2740   2.491       .  S
O2727      C2750   1.290       .  A
O2727     Eu2740   2.460       .  S
O2728      C2749   1.281       .  A
O2728     Eu2738   2.408       .  S
O2729      C2750   1.292       .  A
O2729     Eu2739   2.467       .  S
O2730      C2745   1.286       .  A
O2730     Eu2736   2.438       .  S
O2731      C2748   1.293       .  A
O2731     Eu2737   2.485       .  S
O2732      C2747   1.288       .  A
O2732     Eu2737   2.446       .  S
O2733      C2746   1.292       .  A
O2733     Eu2736   2.473       .  S
O2734      C2743   1.289       .  A
O2734     Eu2740   2.454       .  S
O2735      C2744   1.295       .  A
O2735     Eu2740   2.490       .  S
Eu2736     O2754   2.358       .  S
Eu2736     O2742   2.359       .  S
Eu2737     O2741   2.360       .  S
Eu2737     O2752   2.348       .  S
Eu2738     O2752   2.357       .  S
Eu2738     O2742   2.359       .  S
Eu2739     O2741   2.359       .  S
Eu2739     O2754   2.358       .  S
Eu2740     O2741   2.352       .  S
Eu2740     O2752   2.346       .  S
Eu2740     O2754   2.374       .  S
Eu2740     O2742   2.352       .  S
C2743      C2968   1.441       .  S
C2744      C2883   1.446       .  S
C2745      C2895   1.435       .  S
C2746      C2834   1.459       .  S
C2747      C2907   1.445       .  S
C2748      C2840   1.463       .  S
C2749      C2876   1.427       .  S
C2750      C2956   1.436       .  S
H2751      O2752   0.965       .  S
H2753      O2754   0.965       .  S
O2755      C2766   1.294       .  A
O2756      C2767   1.289       .  A
O2757     Eu2763   2.451       .  S
O2758      C2769   1.291       .  A
O2758     Eu2763   2.471       .  S
O2759      C2769   1.288       .  A
O2760      C2768   1.290       .  A
O2760     Eu2792   2.459       .  S
O2761      C2767   1.285       .  A
O2761     Eu2763   2.437       .  S
O2762     Eu2763   2.412       .  S
Eu2763     O2764   2.344       .  S
O2765     Eu2791   2.350   1_455  S
C2766      C3015   1.423       .  S
C2767      C2922   1.424       .  S
C2768      C2860   1.437       .  S
C2769      C2991   1.439       .  S
O2771     Eu2792   2.361       .  S
O2771     Eu2790   2.355       .  S
H2772      O2773   0.965       .  S
O2773     Eu2793   2.338       .  S
O2774      C2797   1.290       .  A
O2774     Eu2790   2.459       .  S
O2775      C2798   1.290       .  A
O2775     Eu2791   2.462       .  S
O2776      C2799   1.289       .  A
O2776     Eu2792   2.454       .  S
O2777      C2800   1.288       .  A
O2778      C2801   1.288       .  A
O2778     Eu2793   2.458       .  S
O2779      C2802   1.293       .  A
O2780      C2803   1.290       .  A
O2780     Eu2794   2.460       .  S
O2781      C2804   1.295       .  A
O2781     Eu2794   2.484       .  S
O2782      C2803   1.293       .  A
O2783      C2804   1.280       .  A
O2784      C2799   1.291       .  A
O2784     Eu2790   2.469       .  S
O2785      C2802   1.288       .  A
O2785     Eu2791   2.448       .  S
O2786     Eu2791   2.478       .  S
O2787      C2800   1.289       .  A
O2788     Eu2794   2.462       .  S
O2789      C2798   1.293       .  A
O2789     Eu2794   2.477       .  S
Eu2790     O2796   2.350       .  S
Eu2791     O2795   2.341       .  S
Eu2791     O2806   2.363       .  S
Eu2792     O2796   2.352       .  S
Eu2794     O2795   2.344       .  S
Eu2794     O2806   2.358       .  S
Eu2794     O2808   2.357       .  S
C2797      C2969   1.436       .  S
C2798      C2919   1.441       .  S
C2799      C2848   1.436       .  S
C2800      C2897   1.426       .  S
C2801      C2852   1.441       .  S
C2802      C2935   1.436       .  S
C2803      C2994   1.444       .  S
C2804      C2871   1.424       .  S
H2805      O2806   0.965       .  S
H2807      O2808   0.966       .  S
C2809      C2810   1.205       .  T
C2811      C2812   1.208       .  T
C2813      C2814   1.205       .  T
C2815      C2816   1.207       .  T
C2817      C2818   1.346       .  D
C2817      H2819   1.086       .  S
C2818      H2820   1.086       .  S
C2821      C2822   1.208       .  T
C2823      C2824   1.205       .  T
C2825      C2826   1.205       .  T
C2827      C2828   1.208       .  T
C2829      H2831   1.087   1_655  S
C2830      H2832   1.087       .  S
C2833      C2834   1.220       .  T
C2835      C2836   1.196       .  T
C2837      C2838   1.199       .  T
C2839      C2840   1.222       .  T
C2841      C2842   1.328       .  D
C2841      H2843   1.087       .  S
C2842      H2844   1.087       .  S
C2845      C2846   1.208       .  T
C2847      C2848   1.206       .  T
C2849      C2850   1.207       .  T
C2851      C2852   1.209       .  T
C2853      C2854   1.344       .  D
C2853      H2855   1.086       .  S
C2854      H2856   1.086       .  S
C2857      C2858   1.202       .  T
C2859      C2860   1.207       .  T
C2861      C2862   1.203       .  T
C2863      C2864   1.208       .  T
C2865      C2866   1.340       .  D
C2865      H2867   1.087       .  S
C2866      H2868   1.087       .  S
C2869      C2870   1.219       .  T
C2871      C2872   1.200       .  T
C2873      C2874   1.223       .  T
C2875      C2876   1.202       .  T
C2877      C2878   1.329       .  D
C2877      H2879   1.087       .  S
C2878      H2880   1.087       .  S
C2881      C2882   1.216       .  T
C2883      C2884   1.213       .  T
C2885      C2886   1.196       .  T
C2889      C2890   1.331       .  D
C2889      H2891   1.087       .  S
C2890      H2892   1.087       .  S
C2893      C2894   1.208       .  T
C2895      C2896   1.206       .  T
C2897      C2898   1.200       .  T
C2899      C2900   1.204       .  T
C2901      C2902   1.346       .  D
C2901      H2903   1.086       .  S
C2902      H2904   1.086       .  S
C2905      C2906   1.212       .  T
C2907      C2908   1.212       .  T
C2909      C2910   1.207       .  T
C2911      C2912   1.206       .  T
C2913      C2914   1.345       .  D
C2913      H2915   1.086       .  S
C2914      H2916   1.086       .  S
C2917      C2918   1.211       .  T
C2919      C2920   1.210       .  T
C2921      C2922   1.199       .  T
C2923      C2924   1.202       .  T
C2925      C2926   1.343       .  D
C2925      H2927   1.086       .  S
C2926      H2928   1.086       .  S
C2929      C2930   1.205       .  T
C2933      C2934   1.206       .  T
C2935      C2936   1.207       .  T
C2937      C2938   1.342       .  D
C2937      H2939   1.087       .  S
C2938      H2940   1.087       .  S
C2941      C2942   1.203       .  T
C2943      C2944   1.210       .  T
C2945      C2946   1.204       .  T
C2947      C2948   1.210       .  T
C2949      C2950   1.340       .  D
C2949      H2951   1.087       .  S
C2950      H2952   1.087       .  S
C2953      C2954   1.209       .  T
C2955      C2956   1.207       .  T
C2957      C2958   1.206       .  T
C2959      C2960   1.205       .  T
C2961      C2962   1.343       .  D
C2961      H2963   1.086       .  S
C2962      H2964   1.086       .  S
C2967      C2968   1.210       .  T
C2969      C2970   1.206       .  T
C2971      C2972   1.202       .  T
C2973      C2974   1.340       .  D
C2973      H2975   1.087       .  S
C2974      H2976   1.087       .  S
C2977      C2978   1.214       .  T
C2979      C2980   1.196       .  T
C2981      C2982   1.196       .  T
C2983      C2984   1.212       .  T
C2985      C2986   1.331       .  D
C2985      H2987   1.087       .  S
C2986      H2988   1.087       .  S
C2989      C2990   1.206       .  T
C2991      C2992   1.208       .  T
C2993      C2994   1.211       .  T
C2995      C2996   1.210       .  T
C2997      H2999   1.086   1_655  S
C2998      H3000   1.086       .  S
C3001      C3002   1.208       .  T
C3003      C3004   1.208       .  T
C3005      C3006   1.210       .  T
C3009      C3010   1.345       .  D
C3009      H3011   1.086       .  S
C3010      H3012   1.086       .  S
C3013      C3014   1.219       .  T
C3015      C3016   1.199       .  T
C3017      C3018   1.214       .  T
C3019      C3020   1.195       .  T
C3021      C3022   1.329       .  D
C3021      H3023   1.087       .  S
C3022      H3024   1.087       .  S
