geometry optimzed in LAMMPS
_audit_creation_date              2020-11-30 
_audit_creation_method            'lammps2cif' 
_symmetry_space_group_name_H-M    'P1' 
_symmetry_Int_Tables_number       1 
_symmetry_cell_setting            triclinic 
loop_ 
_symmetry_equiv_pos_as_xyz 
  x,y,z 
_cell_length_a                    28.959882976895347 
_cell_length_b                    28.8808944926558 
_cell_length_c                    71.89693780896802 
_cell_angle_alpha                 90.0655844635017 
_cell_angle_beta                  89.84737807153476 
_cell_angle_gamma                 119.9842622316468 
loop_ 
_atom_site_label 
_atom_site_type_symbol 
_atom_site_fract_x 
_atom_site_fract_y 
_atom_site_fract_z 
_atom_site_charge 
C1          C  0.66808413  0.10781001  0.73141518     0.03270
C2          C  0.62363668  0.05920261  0.72603415    -0.12880
C3          C  0.62502908  0.03282952  0.70977003     0.00770
C4          C  0.67188679  0.05569930  0.69904949    -0.11410
C5          C  0.71744589  0.10235339  0.70494848     0.03260
C6          C  0.71496360  0.12891578  0.72084676    -0.10830
H7          H  0.58849990  0.04121911  0.73481014     0.08850
H8          H  0.67348704  0.03705108  0.68618388     0.06380
H9          H  0.75002671  0.16549216  0.72522659     0.06230
C10         C  0.01649311  0.23956741  0.66739828     0.03270
C11         C  0.96750937  0.22203409  0.67633442    -0.12880
C12         C  0.92136154  0.17743139  0.66966598     0.00770
C13         C  0.92420907  0.15064812  0.65387415    -0.11410
C14         C  0.97301452  0.16691050  0.64487326     0.03260
C15         C  0.01942901  0.21138658  0.65193128    -0.10830
H16         H  0.96518417  0.24394120  0.68821415     0.08850
H17         H  0.88757591  0.11852508  0.64816125     0.06380
H18         H  0.05736241  0.22569244  0.64494988     0.06230
C19         C  0.55857032  0.91188341  0.83006868     0.03270
C20         C  0.58768424  0.89259369  0.83965263    -0.12880
C21         C  0.58783731  0.84658613  0.83358293     0.00770
C22         C  0.55861036  0.81967517  0.81778209    -0.11410
C23         C  0.52829626  0.83753803  0.80823524     0.03260
C24         C  0.52860814  0.88391161  0.81442522    -0.10830
H25         H  0.61156805  0.91438964  0.85155634     0.08850
H26         H  0.56023698  0.78514909  0.81276599     0.06380
H27         H  0.50684853  0.89906046  0.80673505     0.06230
C28         C  0.73517447  0.70017319  0.87607480     0.03270
C29         C  0.70999641  0.72174693  0.86547257    -0.12880
C30         C  0.71146961  0.76890609  0.87117299     0.00770
C31         C  0.73956901  0.79517268  0.88726409    -0.11410
C32         C  0.76389144  0.77347600  0.89828360     0.03260
C33         C  0.76152267  0.72576841  0.89255044    -0.10830
H34         H  0.68731068  0.70048978  0.85329360     0.08850
H35         H  0.74246808  0.83279049  0.89111491     0.06380
H36         H  0.77973610  0.70813045  0.90096183     0.06230
C37         C  0.88557946  0.57954119  0.49947902     0.03270
C38         C  0.91259248  0.55771972  0.50898313    -0.12880
C39         C  0.91332185  0.51267473  0.50210198     0.00770
C40         C  0.88391481  0.48716905  0.48613347    -0.11410
C41         C  0.85471719  0.50672157  0.47674037     0.03260
C42         C  0.85532984  0.55268965  0.48368405    -0.10830
H43         H  0.93443697  0.57660276  0.52154619     0.08850
H44         H  0.88431051  0.45222503  0.48089252     0.06380
H45         H  0.83303225  0.56821299  0.47661855     0.06230
C46         C  0.10176403  0.44646128  0.56418787     0.03270
C47         C  0.07486000  0.46743426  0.55414344    -0.12880
C48         C  0.04317298  0.44013459  0.53880763     0.00770
C49         C  0.04096018  0.39296100  0.53273893    -0.11410
C50         C  0.06817723  0.37170669  0.54238984     0.03260
C51         C  0.09800113  0.39825748  0.55821564    -0.10830
H52         H  0.07815503  0.50499786  0.55834766     0.08850
H53         H  0.01693818  0.37202338  0.52074485     0.06380
H54         H  0.11637190  0.38007546  0.56621964     0.06230
C55         C  0.68152028  0.57815166  0.99762853     0.03270
C56         C  0.63217646  0.56230859  0.00618595    -0.12880
C57         C  0.58540960  0.51789569  0.99947012     0.00770
C58         C  0.58845982  0.48940795  0.98414603    -0.11410
C59         C  0.63746674  0.50406812  0.97562528     0.03260
C60         C  0.68402132  0.54747191  0.98288830    -0.10830
H61         H  0.63005762  0.58527784  0.01773727     0.08850
H62         H  0.55210745  0.45676538  0.97844517     0.06380
H63         H  0.72236555  0.55842212  0.97679358     0.06230
C64         C  0.32726363  0.45722918  0.05731628     0.03270
C65         C  0.37452147  0.47679186  0.04704662    -0.12880
C66         C  0.37728664  0.44876723  0.03152398     0.00770
C67         C  0.33128033  0.40178949  0.02580725    -0.11410
C68         C  0.28351733  0.38146209  0.03595845     0.03260
C69         C  0.28193139  0.40966142  0.05170883    -0.10830
H70         H  0.41020797  0.51198125  0.05192359     0.08850
H71         H  0.33352389  0.37953567  0.01405026     0.06380
H72         H  0.24576274  0.39384269  0.05993562     0.06230
C73         C  0.00100609  0.78136092  0.39677691     0.03270
C74         C  0.04942540  0.79782961  0.38738384    -0.12880
C75         C  0.05149165  0.77045641  0.37151489     0.00770
C76         C  0.00473225  0.72537678  0.36524126    -0.11410
C77         C  0.95639595  0.70753558  0.37469524     0.03260
C78         C  0.95460400  0.73620736  0.39021786    -0.10830
H79         H  0.08583879  0.83153271  0.39255263     0.08850
H80         H  0.00645700  0.70257808  0.35354353     0.06380
H81         H  0.91700821  0.72269583  0.39735558     0.06230
C82         C  0.30333154  0.84119486  0.30694808     0.03270
C83         C  0.25689918  0.81766340  0.31793756    -0.12880
C84         C  0.25360438  0.84204975  0.33435153     0.00770
C85         C  0.29832535  0.88921995  0.34042998    -0.11410
C86         C  0.34505283  0.91438427  0.32962965     0.03260
C87         C  0.34699280  0.89026899  0.31279784    -0.10830
H88         H  0.22271916  0.78018118  0.31372131     0.08850
H89         H  0.29599544  0.90722772  0.35334124     0.06380
H90         H  0.38188021  0.91076855  0.30400948     0.06230
C91         C  0.22596274  0.24517023  0.16263917     0.03270
C92         C  0.25828670  0.22928888  0.17205449    -0.12880
C93         C  0.25844439  0.18246870  0.16691582     0.00770
C94         C  0.22609586  0.15136723  0.15221307    -0.11410
C95         C  0.19391756  0.16655566  0.14248948     0.03260
C96         C  0.19317813  0.21280261  0.14809970    -0.10830
H97         H  0.28395417  0.25366439  0.18322911     0.08850
H98         H  0.22685094  0.11565141  0.14808256     0.06380
H99         H  0.16804784  0.22438094  0.14077236     0.06230
C100        C  0.44588133  0.11638070  0.22860360     0.03270
C101        C  0.41996690  0.13776078  0.21823298    -0.12880
C102        C  0.39173244  0.11221896  0.20214394     0.00770
C103        C  0.39208122  0.06668274  0.19565458    -0.11410
C104        C  0.41724068  0.04395336  0.20579718     0.03260
C105        C  0.44363888  0.06890479  0.22245256    -0.10830
H106        H  0.42021986  0.17349699  0.22300385     0.08850
H107        H  0.37131375  0.04817260  0.18286133     0.06380
H108        H  0.46036778  0.05028419  0.23106642     0.06230
C109        C  0.12355194  0.65359339  0.81117552     0.03270
C110        C  0.14193240  0.70285241  0.82018971    -0.12880
C111        C  0.11498337  0.70738214  0.83567770     0.00770
C112        C  0.06850818  0.66210661  0.84200724    -0.11410
C113        C  0.04960165  0.61249509  0.83319802     0.03260
C114        C  0.07826488  0.60808943  0.81821520    -0.10830
H115        H  0.17659966  0.73826501  0.81484825     0.08850
H116        H  0.04588072  0.66576928  0.85336632     0.06380
H117        H  0.06377446  0.56965131  0.81155540     0.06230
C118        C  0.17246259  0.96571589  0.89297723     0.03270
C119        C  0.15655494  0.91719115  0.88399358    -0.12880
C120        C  0.18614274  0.91439932  0.86903603     0.00770
C121        C  0.23270969  0.96079635  0.86328415    -0.11410
C122        C  0.24884588  0.01043822  0.87190521     0.03260
C123        C  0.21673738  0.01246686  0.88630826    -0.10830
H124        H  0.12191719  0.88117942  0.88903701     0.08850
H125        H  0.25736703  0.95749762  0.85262280     0.06380
H126        H  0.22648920  0.05005793  0.89280371     0.06230
C127        C  0.78443700  0.76646367  0.64209704     0.03270
C128        C  0.80626843  0.74058463  0.65227675    -0.12880
C129        C  0.78091746  0.71123037  0.66830501     0.00770
C130        C  0.73401745  0.70907801  0.67452044    -0.11410
C131        C  0.71061838  0.73349292  0.66436335     0.03260
C132        C  0.73620356  0.76225545  0.64813899    -0.10830
H133        H  0.84309950  0.74302396  0.64768569     0.08850
H134        H  0.71480623  0.68683927  0.68700757     0.06380
H135        H  0.71752284  0.77960757  0.63985236     0.06230
C136        C  0.91949784  0.55228580  0.70800806     0.03270
C137        C  0.89865418  0.57935352  0.69794736    -0.12880
C138        C  0.85236957  0.57894072  0.70395551     0.00770
C139        C  0.82540099  0.54919104  0.71974159    -0.11410
C140        C  0.84457061  0.52044544  0.72958915     0.03260
C141        C  0.89170300  0.52226162  0.72371075    -0.10830
H142        H  0.91944105  0.60231567  0.68575526     0.08850
H143        H  0.78945098  0.54852861  0.72441108     0.06380
H144        H  0.90791967  0.50221515  0.73187233     0.06230
C145        C  0.45716465  0.32681892  0.47685435     0.03270
C146        C  0.47392608  0.37500481  0.48631748    -0.12880
C147        C  0.44775868  0.37696933  0.50253735     0.00770
C148        C  0.40344306  0.32947849  0.50909153    -0.11410
C149        C  0.38519526  0.28067858  0.49960966     0.03260
C150        C  0.41382873  0.27974709  0.48386507    -0.10830
H151        H  0.50637825  0.41153102  0.48058418     0.08850
H152        H  0.38224310  0.33091355  0.52124229     0.06380
H153        H  0.40165176  0.24235720  0.47673565     0.06230
C154        C  0.51472237  0.63291396  0.56431671     0.03270
C155        C  0.49789150  0.58486351  0.55466335    -0.12880
C156        C  0.52254338  0.58346497  0.53802266     0.00770
C157        C  0.56539064  0.63122639  0.53114343    -0.11410
C158        C  0.58386119  0.67935296  0.54090989     0.03260
C159        C  0.55780437  0.68034893  0.55726161    -0.10830
H160        H  0.46626235  0.54790447  0.56046636     0.08850
H161        H  0.58541987  0.63107828  0.51842148     0.06380
H162        H  0.57206340  0.71772621  0.56465096     0.06230
C163        C  0.38409450  0.06715937  0.99678408     0.03270
C164        C  0.39772696  0.03066685  0.00429183    -0.12880
C165        C  0.44232260  0.02880542  0.99764319     0.00770
C166        C  0.47240418  0.06191401  0.98303051    -0.11410
C167        C  0.45985418  0.09863524  0.97538367     0.03260
C168        C  0.41652066  0.10203848  0.98262475    -0.10830
H169        H  0.37309751  0.00242876  0.01487676     0.08850
H170        H  0.50540930  0.05852664  0.97752552     0.06380
H171        H  0.40733135  0.13111706  0.97685284     0.06230
C172        C  0.58713385  0.87769318  0.03843493     0.03270
C173        C  0.56862757  0.90719207  0.02852026    -0.12880
C174        C  0.52090080  0.90500831  0.03368654     0.00770
C175        C  0.49166395  0.87384204  0.04880263    -0.11410
C176        C  0.51076029  0.84677344  0.05948031     0.03260
C177        C  0.55744874  0.84722873  0.05388142    -0.10830
H178        H  0.59215695  0.93372971  0.01737028     0.08850
H179        H  0.45433353  0.87170312  0.05248441     0.06380
H180        H  0.57142233  0.82502990  0.06194133     0.06230
C181        C  0.25169100  0.22085957  0.37439022     0.03270
C182        C  0.22990978  0.24679090  0.36407450    -0.12880
C183        C  0.18344631  0.24621047  0.37006220     0.00770
C184        C  0.15674930  0.21686303  0.38595810    -0.11410
C185        C  0.17753767  0.19060608  0.39639653     0.03260
C186        C  0.22535050  0.19334451  0.39073841    -0.10830
H187        H  0.24999419  0.26894019  0.35163658     0.08850
H188        H  0.12044861  0.21564911  0.39051882     0.06380
H189        H  0.24236835  0.17492527  0.39932646     0.06230
C190        C  0.11628180  0.42972964  0.30523625     0.03270
C191        C  0.13538513  0.40092624  0.31509619    -0.12880
C192        C  0.11052886  0.37383044  0.33149281     0.00770
C193        C  0.06698611  0.37720551  0.33843135    -0.11410
C194        C  0.04512053  0.40372308  0.32843222     0.03260
C195        C  0.07004767  0.42941945  0.31160338    -0.10830
H196        H  0.16969535  0.39928406  0.30990502     0.08850
H197        H  0.04930647  0.35764174  0.35147926     0.06380
H198        H  0.05355582  0.44874218  0.30326976     0.06230
C199        C  0.84907397  0.29562369  0.23054566     0.03270
C200        C  0.82874228  0.24733646  0.22075257    -0.12880
C201        C  0.85238663  0.24465745  0.20409602     0.00770
C202        C  0.89691243  0.29070541  0.19717566    -0.11410
C203        C  0.92032355  0.33883176  0.20730193     0.03260
C204        C  0.89525771  0.34118148  0.22386864    -0.10830
H205        H  0.79387976  0.21180926  0.22595183     0.08850
H206        H  0.91429323  0.28831907  0.18411193     0.06380
H207        H  0.91256716  0.37770765  0.23194564     0.06230
C208        C  0.78990852  0.99577680  0.13986035     0.03270
C209        C  0.80927927  0.04282790  0.15022376    -0.12880
C210        C  0.78250303  0.04399327  0.16629740     0.00770
C211        C  0.73671158  0.99727374  0.17219963    -0.11410
C212        C  0.71553292  0.94987262  0.16161517     0.03260
C213        C  0.74261910  0.94983864  0.14530144    -0.10830
H214        H  0.84491739  0.07869471  0.14567169     0.09150
H215        H  0.71663168  0.99858905  0.18475292     0.06380
H216        H  0.72653812  0.91482823  0.13648496     0.06230
C217        C  0.52112084  0.65777554  0.30741097     0.03270
C218        C  0.55046130  0.70581861  0.31722309    -0.12880
C219        C  0.58124493  0.70880055  0.33269370     0.00770
C220        C  0.58140522  0.66262146  0.33868118    -0.11410
C221        C  0.55191751  0.61399280  0.32919517     0.03260
C222        C  0.52189653  0.61194456  0.31353553    -0.10830
H223        H  0.55041340  0.74138251  0.31252168     0.08850
H224        H  0.60657718  0.66520319  0.35022109     0.06380
H225        H  0.49949664  0.57470908  0.30599691     0.06230
C226        C  0.76907302  0.96070709  0.39667960     0.03270
C227        C  0.74192896  0.91299283  0.38654508    -0.12880
C228        C  0.71030484  0.90914599  0.37122342     0.00770
C229        C  0.70773539  0.95431979  0.36560604    -0.11410
C230        C  0.73474613  0.00249903  0.37554806     0.03260
C231        C  0.76577355  0.00552455  0.39099270    -0.10830
H232        H  0.74438946  0.87839184  0.39089533     0.08850
H233        H  0.68370874  0.95159604  0.35368353     0.06380
H234        H  0.78635536  0.04238445  0.39885521     0.06230
C235        C  0.43772724  0.29112009  0.73078429     0.03270
C236        C  0.40837402  0.24250187  0.72133947    -0.12880
C237        C  0.37727115  0.23865331  0.70586157     0.00770
C238        C  0.37614264  0.28428324  0.69981872    -0.11410
C239        C  0.40438015  0.33309964  0.70939339     0.03260
C240        C  0.43605963  0.33647251  0.72471331    -0.10830
H241        H  0.40971005  0.20760811  0.72611733     0.08850
H242        H  0.35192954  0.28137206  0.68792321     0.06380
H243        H  0.45742223  0.37354816  0.73241720     0.06230
C244        C  0.18630027  0.98704622  0.64260059     0.03270
C245        C  0.21663101  0.03504936  0.65230984    -0.12880
C246        C  0.24669807  0.03735292  0.66788666     0.00770
C247        C  0.24555038  0.99062002  0.67392493    -0.11410
C248        C  0.21575406  0.94200585  0.66435310     0.03260
C249        C  0.18551640  0.94032151  0.64876301    -0.10830
H250        H  0.21688466  0.07084777  0.64763981     0.08850
H251        H  0.26948521  0.99248541  0.68577524     0.06380
H252        H  0.16382549  0.90364364  0.64087704     0.06230
C253        C  0.62692400  0.09294018  0.47484664     0.03270
C254        C  0.57774348  0.05733452  0.48305985    -0.12880
C255        C  0.57481026  0.02574334  0.49836774     0.00770
C256        C  0.62175109  0.02866097  0.50509407    -0.11410
C257        C  0.67173674  0.06468045  0.49730036     0.03260
C258        C  0.67368406  0.09799649  0.48263175    -0.10830
H259        H  0.54135041  0.05327734  0.47730898     0.08850
H260        H  0.61900966  0.00253890  0.51630030     0.06380
H261        H  0.71186392  0.12760566  0.47700479     0.06230
C262        C  0.27918459  0.87418989  0.54028162     0.03270
C263        C  0.32565410  0.89591840  0.52932675    -0.12880
C264        C  0.37208542  0.89764510  0.53575427     0.00770
C265        C  0.37072673  0.87263762  0.55257551    -0.11410
C266        C  0.32381498  0.84693160  0.56329598     0.03260
C267        C  0.27818358  0.84823009  0.55706274    -0.10830
H268        H  0.32648927  0.91291935  0.51584535     0.08850
H269        H  0.40698876  0.87482971  0.55762739     0.06380
H270        H  0.24216347  0.82959928  0.56533575     0.06230
C271        C  0.66435766  0.51991742  0.22843148     0.03270
C272        C  0.71095146  0.54451551  0.21760204    -0.12880
C273        C  0.71308467  0.57148544  0.20119392     0.00770
C274        C  0.66699234  0.57056517  0.19481567    -0.11410
C275        C  0.62006517  0.54750678  0.20553745     0.03260
C276        C  0.61897279  0.52168001  0.22232180    -0.10830
H277        H  0.74618773  0.54372715  0.22211224     0.08850
H278        H  0.66832736  0.58900930  0.18157977     0.06380
H279        H  0.58351296  0.50450039  0.23094474     0.06230
C280        C  0.97010681  0.76653905  0.14188326     0.03270
C281        C  0.92147950  0.73481835  0.15102640    -0.12880
C282        C  0.91844063  0.70389224  0.16648934     0.00770
C283        C  0.96492061  0.70550184  0.17291574    -0.11410
C284        C  0.01385236  0.73662250  0.16372994     0.03260
C285        C  0.01621818  0.76743758  0.14830523    -0.10830
H286        H  0.88565483  0.73329047  0.14580777     0.08850
H287        H  0.96300145  0.68194911  0.18491670     0.06380
H288        H  0.05315307  0.78957384  0.14060116     0.06230
C289        C  0.88989722  0.27557266  0.99663438     0.03270
C290        C  0.91817649  0.32492863  0.00589290    -0.12880
C291        C  0.92042295  0.37095316  0.99861739     0.00770
C292        C  0.89200453  0.36734124  0.98250764    -0.11410
C293        C  0.86233222  0.31839145  0.97344151     0.03260
C294        C  0.86151853  0.27255537  0.98035731    -0.10830
H295        H  0.94030541  0.32811954  0.01842318     0.08850
H296        H  0.89312724  0.40277926  0.97694406     0.06380
H297        H  0.84078270  0.23554697  0.97261474     0.06230
C298        C  0.07629348  0.66805253  0.03785594     0.03270
C299        C  0.05117614  0.62030372  0.02754856    -0.12880
C300        C  0.05125772  0.57457685  0.03394726     0.00770
C301        C  0.08002328  0.57748531  0.04992390    -0.11410
C302        C  0.10574120  0.62472228  0.06036869     0.03260
C303        C  0.10208868  0.66922187  0.05454169    -0.10830
H304        H  0.02974879  0.61792639  0.01492438     0.08850
H305        H  0.08155539  0.54240225  0.05432237     0.06380
H306        H  0.11763457  0.70412314  0.06337788     0.06230
C307        C  0.34591961  0.39564664  0.83065958     0.03270
C308        C  0.29655493  0.36414069  0.83951011    -0.12880
C309        C  0.25023125  0.36194051  0.83271736     0.00770
C310        C  0.25332127  0.39203482  0.81705285    -0.11410
C311        C  0.30224645  0.42453334  0.80813713     0.03260
C312        C  0.34858805  0.42648601  0.81512117    -0.10830
H313        H  0.29382968  0.33996402  0.85143133     0.08850
H314        H  0.21724057  0.38954107  0.81165025     0.06380
H315        H  0.38636282  0.45076673  0.80816116     0.06230
C316        C  0.99628147  0.17723273  0.89440946     0.03270
C317        C  0.04261048  0.20026034  0.88359806    -0.12880
C318        C  0.04559556  0.22740055  0.86717421     0.00770
C319        C  0.00052581  0.22886113  0.86091935    -0.11410
C320        C  0.95373816  0.20728296  0.87178398     0.03260
C321        C  0.95194677  0.18084437  0.88851544    -0.10830
H322        H  0.07707413  0.19799794  0.88816185     0.08850
H323        H  0.00290419  0.24866651  0.84790998     0.06380
H324        H  0.91703337  0.16488231  0.89738376     0.06230
O325        O  0.70852700  0.25494120  0.80493610    -0.79990
O326        O  0.48209969  0.22353870  0.86682924    -0.81550
O327        O  0.56719792  0.13793303  0.83710685    -0.78570
O328        O  0.54296135  0.25244571  0.80450039    -0.76950
O329        O  0.58457446  0.34392309  0.80338127    -0.78740
O330        O  0.61935087  0.14535352  0.86213255    -0.79670
O331        O  0.48582222  0.18084441  0.84062057    -0.81000
O332        O  0.61746192  0.20436647  0.80420692    -0.81290
Eu333      Eu  0.58034513  0.22710734  0.83082645     2.39200
O334        O  0.57101873  0.29843089  0.84166538    -0.88800
O335        O  0.66221298  0.23762739  0.84136832    -0.92400
C336        C  0.66425301  0.21849239  0.79778435     1.02290
C337        C  0.46038219  0.18641065  0.85444468     1.02110
C338        C  0.58777009  0.11911160  0.84860752     1.02050
C339        C  0.55195683  0.29689788  0.79704458     0.99910
H340        H  0.55275425  0.19152754  0.86807272     0.29660
O341        O  0.58105644  0.22541030  0.86355313    -1.01190
H342        H  0.65226714  0.30839128  0.80673007     0.29690
O343        O  0.65216943  0.30847888  0.82015760    -1.03730
O344        O  0.59566547  0.35700801  0.90158696    -0.80950
O345        O  0.82246028  0.39581395  0.83744807    -0.80490
O346        O  0.60302260  0.20088944  0.90097554    -0.78930
O347        O  0.56444679  0.39052245  0.83731469    -0.82270
O348        O  0.70536872  0.41789349  0.80466681    -0.80130
O349        O  0.73861983  0.22305890  0.86729671    -0.78770
O350        O  0.76086890  0.36541298  0.90041500    -0.80300
O351        O  0.73192508  0.47745459  0.86800581    -0.82220
O352        O  0.72079661  0.27395676  0.90107175    -0.78960
O353        O  0.68688169  0.47365802  0.84134910    -0.81630
O354        O  0.54886608  0.23757539  0.90083672    -0.77370
O355        O  0.78130741  0.27284027  0.84156881    -0.77400
O356        O  0.75567466  0.37694958  0.80363136    -0.77050
O357        O  0.52238184  0.34069455  0.86318253    -0.80540
O358        O  0.68640729  0.41124753  0.90132461    -0.79970
O359        O  0.81438742  0.43972199  0.86272535    -0.78290
Eu360      Eu  0.57118668  0.29712503  0.87428673     2.39770
Eu361      Eu  0.73373981  0.31886528  0.83082568     2.39570
Eu362      Eu  0.66328123  0.23731948  0.87397637     2.38400
Eu363      Eu  0.64207162  0.37998130  0.83076916     2.39880
Eu364      Eu  0.72246969  0.38974752  0.87412218     2.39790
O365        O  0.72335058  0.39038343  0.84146225    -0.92710
O366        O  0.65246537  0.30795131  0.88472424    -0.91600
C367        C  0.63988811  0.39449969  0.90847188     1.02460
C368        C  0.84099315  0.43471316  0.84923960     1.01180
C369        C  0.56530828  0.20736417  0.90779810     1.00570
C370        C  0.52614217  0.37077370  0.84933092     1.02580
C371        C  0.74117616  0.40943152  0.79725298     1.01500
C372        C  0.77662187  0.24143764  0.85515851     1.00350
C373        C  0.75255936  0.32086652  0.90758779     1.00410
C374        C  0.71482863  0.49803909  0.85582521     1.03020
H375        H  0.76820492  0.32550877  0.86802836     0.30390
O376        O  0.73434559  0.31957846  0.86346961    -1.04870
H377        H  0.63411708  0.40636885  0.86828214     0.32440
O378        O  0.64069560  0.37891699  0.86352909    -1.07430
O379        O  0.87468611  0.92181276  0.97138335    -0.79990
O380        O  0.06852553  0.88616144  0.03259174    -0.81550
O381        O  0.03271512  0.91929503  0.96891583    -0.78570
O382        O  0.89920289  0.80592934  0.00368460    -0.76950
O383        O  0.85825785  0.80935302  0.03049809    -0.78740
O384        O  0.08825997  0.01017258  0.96929132    -0.79670
O385        O  0.01824959  0.84483830  0.00686007    -0.81000
O386        O  0.91434689  0.87053674  0.97069481    -0.81290
Eu387      Eu  0.97498973  0.89449755  0.99675236     2.39200
O388        O  0.97722713  0.89365336  0.02936580    -0.88800
O389        O  0.98521063  0.97587292  0.98641103    -0.92400
C390        C  0.88210422  0.88489900  0.96420735     1.02290
C391        C  0.04847929  0.84799019  0.02049460     1.02110
C392        C  0.07026298  0.96351788  0.96201091     1.02050
C393        C  0.86203882  0.78464411  0.01607447     0.99910
H394        H  0.08487931  0.95855926  0.00191358     0.29660
O395        O  0.05734629  0.96458967  0.00690879    -1.01190
H396        H  0.87001991  0.87603559  0.00385107     0.29690
O397        O  0.90408970  0.90414772  0.00821433    -1.03730
O398        O  0.09646533  0.02596183  0.06645320    -0.80950
O399        O  0.90114803  0.06106579  0.00483814    -0.80490
O400        O  0.15591261  0.05966270  0.00295571    -0.78930
O401        O  0.93315912  0.86650258  0.06676402    -0.82270
O402        O  0.81851485  0.89169065  0.03486888    -0.80130
O403        O  0.04014124  0.08147859  0.96984112    -0.78770
O404        O  0.07521558  0.14419047  0.03405671    -0.80300
O405        O  0.93538158  0.03300291  0.06657752    -0.82220
O406        O  0.11564813  0.14091140  0.00710726    -0.78960
O407        O  0.88444946  0.94159157  0.06777093    -0.81630
O408        O  0.15270912  0.01132440  0.02856653    -0.77370
O409        O  0.94899618  0.04065448  0.96988784    -0.77400
O410        O  0.82184339  0.93954397  0.00907564    -0.77050
O411        O  0.02434095  0.90691655  0.06705819    -0.80540
O412        O  0.05565597  0.07634064  0.06768754    -0.79970
O413        O  0.95305057  0.10449395  0.03007760    -0.78290
Eu414      Eu  0.05942963  0.96476261  0.03967024     2.39770
Eu415      Eu  0.91428439  0.98533229  0.99762547     2.39570
Eu416      Eu  0.06726559  0.04676748  0.99657318     2.38400
Eu417      Eu  0.90673269  0.90363325  0.04087465     2.39880
Eu418      Eu  0.99812814  0.05612417  0.04048589     2.39790
O419        O  0.91635163  0.98512983  0.03029181    -0.92710
O420        O  0.06923293  0.04642937  0.02924578    -0.91600
C421        C  0.08750747  0.06120698  0.07415386     1.02460
C422        C  0.92119348  0.09969340  0.01672311     1.01180
C423        C  0.17739399  0.04211650  0.01459460     1.00570
C424        C  0.97768310  0.87492800  0.07379614     1.02580
C425        C  0.79732390  0.90922526  0.02312555     1.01500
C426        C  0.99517961  0.07185092  0.96273666     1.00350
C427        C  0.11215728  0.16553674  0.02160938     1.00410
C428        C  0.89900675  0.98894797  0.07389869     1.03020
H429        H  0.00254082  0.09090612  0.00320640     0.30390
O430        O  0.99686453  0.05704342  0.00778972    -1.04870
H431        H  0.98873710  0.97478856  0.06440641     0.32440
O432        O  0.98855577  0.97481278  0.05098163    -1.07430
O433        O  0.75326535  0.36292043  0.40193240    -0.79990
O434        O  0.56793287  0.39912065  0.33638353    -0.81550
O435        O  0.73892219  0.48106586  0.36775048    -0.78570
O436        O  0.59824064  0.36982230  0.40106467    -0.76950
O437        O  0.54340124  0.27881697  0.40101532    -0.78740
O438        O  0.78050805  0.47690536  0.34117817    -0.79670
O439        O  0.61404293  0.44293718  0.36254982    -0.81000
O440        O  0.71730579  0.41784634  0.40115687    -0.81290
Eu441      Eu  0.65906613  0.39439072  0.37402653     2.39200
O442        O  0.57788541  0.32303759  0.36336556    -0.88800
O443        O  0.73009146  0.38300680  0.36359641    -0.92400
C444        C  0.74655642  0.40084633  0.40857952     1.02290
C445        C  0.58513561  0.43792581  0.34813541     1.02110
C446        C  0.77684220  0.50160454  0.35559320     1.02050
C447        C  0.56038419  0.32574354  0.40798189     0.99910
H448        H  0.66701010  0.42787426  0.33647544     0.29660
O449        O  0.66081747  0.39404657  0.34128448    -1.01190
H450        H  0.64777264  0.31265602  0.39834449     0.29690
O451        O  0.64818738  0.31261794  0.38491888    -1.03730
O452        O  0.54250419  0.25912376  0.30418865    -0.80950
O453        O  0.73072277  0.22363338  0.36894654    -0.80490
O454        O  0.70550991  0.41876035  0.30377892    -0.78930
O455        O  0.47850196  0.23058752  0.36794785    -0.82270
O456        O  0.59066128  0.20426017  0.40132365    -0.80130
O457        O  0.82055449  0.39664843  0.33781207    -0.78770
O458        O  0.70318921  0.25442801  0.30510762    -0.80300
O459        O  0.56239962  0.14076672  0.33784982    -0.82220
O460        O  0.75310548  0.34579062  0.30389212    -0.78960
O461        O  0.51863005  0.14778902  0.36333635    -0.81630
O462        O  0.61454252  0.37835134  0.30332997    -0.77370
O463        O  0.81333292  0.34823967  0.36395860    -0.77400
O464        O  0.68139901  0.24042083  0.40134561    -0.77050
O465        O  0.48676088  0.28058509  0.34216151    -0.80540
O466        O  0.58285326  0.20832937  0.30391473    -0.79970
O467        O  0.67975942  0.17945838  0.34362131    -0.78290
Eu468      Eu  0.57915412  0.32199093  0.33070804     2.39770
Eu469      Eu  0.71959466  0.30174339  0.37483398     2.39570
Eu470      Eu  0.73143707  0.38296975  0.33081716     2.38400
Eu471      Eu  0.56666282  0.24124873  0.37442571     2.39880
Eu472      Eu  0.63907104  0.22992463  0.33135479     2.39790
O473        O  0.63800664  0.23079884  0.36403677    -0.92710
O474        O  0.65020662  0.31139172  0.32038477    -0.91600
C475        C  0.55118327  0.22301981  0.29702383     1.02460
C476        C  0.71024150  0.18408496  0.35739445     1.01180
C477        C  0.66095337  0.40988723  0.29644534     1.00570
C478        C  0.46004297  0.25051992  0.35599919     1.02580
C479        C  0.63445661  0.21001772  0.40820962     1.01500
C480        C  0.83996485  0.37849736  0.35008576     1.00350
C481        C  0.73907236  0.29879051  0.29760882     1.00410
C482        C  0.52362363  0.12131360  0.34970115     1.03020
H483        H  0.74836257  0.29470828  0.33760120     0.30390
O484        O  0.72037417  0.30083658  0.34203661    -1.04870
H485        H  0.53358199  0.21279112  0.33693451     0.32440
O486        O  0.56732346  0.24056059  0.34166633    -1.07430
O487        O  0.40249997  0.80996354  0.70278337    -0.79990
O488        O  0.36579170  0.58290503  0.63864235    -0.81550
O489        O  0.48513674  0.72443259  0.67196041    -0.78570
O490        O  0.37102938  0.74702600  0.63822954    -0.76950
O491        O  0.28042491  0.71179305  0.63881740    -0.78740
O492        O  0.47782861  0.67384926  0.69749918    -0.79670
O493        O  0.42052504  0.67388357  0.63899502    -0.81000
O494        O  0.44581967  0.80220184  0.67733832    -0.81290
Eu495      Eu  0.39598394  0.71048815  0.66520057     2.39200
O496        O  0.31427487  0.63993054  0.65466902    -0.88800
O497        O  0.39500370  0.71008755  0.69780018    -0.92400
C498        C  0.44171836  0.82852562  0.69116843     1.02290
C499        C  0.40430008  0.62717663  0.63205431     1.02110
C500        C  0.50432893  0.70525771  0.68390652     1.02050
C501        C  0.32694986  0.74147640  0.63163643     0.99910
H502        H  0.41262472  0.62183835  0.67121017     0.29660
O503        O  0.38480555  0.62804580  0.67577509    -1.01190
H504        H  0.33235831  0.75682602  0.67124576     0.29690
O505        O  0.32620745  0.72282070  0.67586124    -1.03730
O506        O  0.22813666  0.46862560  0.67200597    -0.80950
O507        O  0.26438931  0.69655407  0.73569281    -0.80490
O508        O  0.39660725  0.55155642  0.70222535    -0.78930
O509        O  0.20639604  0.58950139  0.63897199    -0.82270
O510        O  0.22878938  0.72639276  0.67177039    -0.80130
O511        O  0.42209425  0.69138482  0.73480806    -0.78770
O512        O  0.25806892  0.53182823  0.73536899    -0.80300
O513        O  0.14398758  0.55626834  0.70250793    -0.82220
O514        O  0.34877401  0.56801223  0.73484455    -0.78960
O515        O  0.15231008  0.60818364  0.67725477    -0.81630
O516        O  0.34481884  0.50743464  0.67705856    -0.77370
O517        O  0.38634190  0.74655054  0.73455228    -0.77400
O518        O  0.27965974  0.77044155  0.69712353    -0.77050
O519        O  0.24468264  0.53680942  0.63836356    -0.80540
O520        O  0.18589213  0.47502471  0.69809324    -0.79970
O521        O  0.21010513  0.60548448  0.73550835    -0.78290
Eu522      Eu  0.30314249  0.55795202  0.66521101     2.39770
Eu523      Eu  0.32457849  0.72183752  0.70854705     2.39570
Eu524      Eu  0.38486754  0.62877645  0.70844720     2.38400
Eu525      Eu  0.24408629  0.65157660  0.66545379     2.39880
Eu526      Eu  0.23281598  0.56872738  0.70875206     2.39790
O527        O  0.24322187  0.65076142  0.69811945    -0.92710
O528        O  0.30322487  0.55788885  0.69785652    -0.91600
C529        C  0.19071066  0.44897884  0.68431237     1.02460
C530        C  0.22691560  0.65221095  0.74256918     1.01180
C531        C  0.37602402  0.51218814  0.69064202     1.00570
C532        C  0.21348880  0.55251431  0.63173989     1.02580
C533        C  0.24819569  0.76531768  0.68351584     1.01500
C534        C  0.41676656  0.73016629  0.74134385     1.00350
C535        C  0.30224801  0.53762091  0.74188470     1.00410
C536        C  0.12557027  0.57678234  0.69079351     1.03020
H537        H  0.31463414  0.64008851  0.73268273     0.30390
O538        O  0.31433303  0.64003885  0.71925460    -1.04870
H539        H  0.19844077  0.54141197  0.67146847     0.32440
O540        O  0.23234855  0.56939796  0.67601151    -1.07430
O541        O  0.37362725  0.59277424  0.13451569    -0.79990
O542        O  0.14590034  0.55743198  0.19842938    -0.81550
O543        O  0.23487644  0.47363632  0.16843842    -0.78570
O544        O  0.20869275  0.58618698  0.13545619    -0.76950
O545        O  0.24846637  0.67735533  0.13469424    -0.78740
O546        O  0.28206539  0.47809093  0.19448154    -0.79670
O547        O  0.15295735  0.51358892  0.17298951    -0.81000
O548        O  0.28269196  0.53883522  0.13459103    -0.81290
Eu549      Eu  0.24638265  0.56162846  0.16177810     2.39200
O550        O  0.23621044  0.63298175  0.17231923    -0.88800
O551        O  0.32775395  0.57127331  0.17245759    -0.92400
C552        C  0.32939088  0.55570759  0.12749342     1.02290
C553        C  0.12640187  0.51863436  0.18659397     1.02110
C554        C  0.25201385  0.45277138  0.18048624     1.02050
C555        C  0.21648258  0.63038902  0.12814968     0.99910
H556        H  0.21864523  0.52748243  0.19899660     0.29660
O557        O  0.24674378  0.56138759  0.19443236    -1.01190
H558        H  0.31760769  0.64279096  0.13778562     0.29690
O559        O  0.31769752  0.64295964  0.15120940    -1.03730
O560        O  0.26058243  0.69507540  0.23175233    -0.80950
O561        O  0.48748298  0.73100246  0.16773402    -0.80490
O562        O  0.26532293  0.53539385  0.23181522    -0.78930
O563        O  0.23159195  0.72773160  0.16768819    -0.82270
O564        O  0.37011372  0.75044477  0.13487719    -0.80130
O565        O  0.40283673  0.55712648  0.19849646    -0.78770
O566        O  0.42338625  0.70043289  0.23197196    -0.80300
O567        O  0.40174428  0.81482869  0.19820660    -0.82220
O568        O  0.38740379  0.60939703  0.23183488    -0.78960
O569        O  0.35329728  0.80827887  0.17222906    -0.81630
O570        O  0.21019815  0.57108861  0.23123409    -0.77370
O571        O  0.44599234  0.60683055  0.17277850    -0.77400
O572        O  0.42118907  0.71038560  0.13485273    -0.77050
O573        O  0.18781716  0.67645435  0.19309709    -0.80540
O574        O  0.35133239  0.74763332  0.23186131    -0.79970
O575        O  0.48003763  0.77410327  0.19330397    -0.78290
Eu576      Eu  0.23564078  0.63260571  0.20501062     2.39770
Eu577      Eu  0.39883901  0.65283678  0.16185492     2.39570
Eu578      Eu  0.32785802  0.57190818  0.20518809     2.38400
Eu579      Eu  0.30770287  0.71466537  0.16151454     2.39880
Eu580      Eu  0.38770675  0.72512002  0.20494962     2.39790
O581        O  0.38863397  0.72468170  0.17229906    -0.92710
O582        O  0.31702067  0.64318738  0.21560773    -0.91600
C583        C  0.30481390  0.73228439  0.23880280     1.02460
C584        C  0.50643147  0.77003791  0.17949135     1.01180
C585        C  0.22640406  0.54068433  0.23822068     1.00570
C586        C  0.19275294  0.70765692  0.17946841     1.02580
C587        C  0.40604588  0.74148234  0.12779129     1.01500
C588        C  0.44109916  0.57567124  0.18646277     1.00350
C589        C  0.41720468  0.65626436  0.23878723     1.00410
C590        C  0.38363973  0.83457323  0.18604321     1.03020
H591        H  0.43295266  0.66022636  0.19916145     0.30390
O592        O  0.39912829  0.65427400  0.19455339    -1.04870
H593        H  0.30008626  0.74243536  0.19881006     0.32440
O594        O  0.30598626  0.71435053  0.19425570    -1.07430
O595        O  0.92786287  0.03109111  0.56794169    -0.79990
O596        O  0.15135193  0.06421858  0.50364063    -0.81550
O597        O  0.09010174  0.03578830  0.56737466    -0.78570
O598        O  0.06654705  0.15053591  0.53326743    -0.76950
O599        O  0.01462454  0.14214080  0.50802551    -0.78740
O600        O  0.04757053  0.94433415  0.56856194    -0.79670
O601        O  0.14791846  0.10877779  0.52942381    -0.81000
O602        O  0.01877832  0.08459964  0.56738386    -0.81290
Eu603      Eu  0.05421077  0.06164394  0.54037015     2.39200
O604        O  0.05294505  0.06030887  0.50765868    -0.88800
O605        O  0.98228502  0.98071107  0.55116955    -0.92400
C606        C  0.97251369  0.06839367  0.57466147     1.02290
C607        C  0.17279938  0.10296227  0.51544281     1.02110
C608        C  0.08018529  0.99110315  0.57501903     1.02050
C609        C  0.04601315  0.16893546  0.52153152     0.99910
H610        H  0.09726488  0.99512932  0.53463523     0.29660
O611        O  0.06366453  0.98978221  0.53002359    -1.01190
H612        H  0.96575494  0.07845839  0.53450103     0.29690
O613        O  0.97163985  0.05042527  0.52988960    -1.03730
O614        O  0.03743078  0.92607947  0.47074526    -0.80950
O615        O  0.81094526  0.89436832  0.53452200    -0.80490
O616        O  0.06558336  0.89231469  0.53452940    -0.78930
O617        O  0.03236705  0.08602707  0.47041369    -0.82270
O618        O  0.89452194  0.06062068  0.50359957    -0.80130
O619        O  0.92874808  0.87158402  0.56750927    -0.78770
O620        O  0.89548295  0.80720417  0.50466835    -0.80300
O621        O  0.87379301  0.92070302  0.47062765    -0.82220
O622        O  0.94649500  0.81557549  0.53009699    -0.78960
O623        O  0.91022233  0.01176876  0.47061100    -0.81630
O624        O  0.10837538  0.94055089  0.50851119    -0.77370
O625        O  0.87773411  0.91164980  0.56807337    -0.77400
O626        O  0.85197247  0.01510272  0.52993524    -0.77050
O627        O  0.08653975  0.04919490  0.47052227    -0.80540
O628        O  0.94671836  0.87104904  0.47135169    -0.79970
O629        O  0.81639467  0.85038982  0.50874838    -0.78290
Eu630      Eu  0.06258913  0.98821017  0.49727173     2.39770
Eu631      Eu  0.90038522  0.96985430  0.54091192     2.39570
Eu632      Eu  0.99157416  0.90856700  0.54105391     2.38400
Eu633      Eu  0.97106380  0.04902541  0.49714044     2.39880
Eu634      Eu  0.90969134  0.89647948  0.49764497     2.39790
O635        O  0.89965530  0.96807671  0.50818489    -0.92710
O636        O  0.99133084  0.90739030  0.50838419    -0.91600
C637        C  0.99335945  0.88739031  0.46426674     1.02460
C638        C  0.79090296  0.85600003  0.52255218     1.01180
C639        C  0.10327236  0.90947535  0.52229942     1.00570
C640        C  0.07022208  0.07974969  0.46362898     1.02580
C641        C  0.85633612  0.04401878  0.51557893     1.01500
C642        C  0.89233489  0.87954702  0.57472819     1.00350
C643        C  0.91490441  0.78846997  0.51667876     1.00410
C644        C  0.88003671  0.96479062  0.46375518     1.03020
H645        H  0.88224073  0.86398295  0.53516945     0.30390
O646        O  0.91027538  0.89764756  0.53041555    -1.04870
H647        H  0.98101220  0.97721099  0.47320201     0.32440
O648        O  0.98105458  0.97748412  0.48663137    -1.07430
C649        C  0.99549645  0.15099379  0.91216031    -0.05330
C650        C  0.95556536  0.09801567  0.91538815    -0.32760
C651        C  0.95575039  0.07149666  0.93162631     0.36490
C652        C  0.99595143  0.09828496  0.94509616    -0.05690
C653        C  0.03593515  0.15123362  0.94184438    -0.32660
C654        C  0.03589540  0.17766219  0.92554026     0.36400
H655        H  0.92477762  0.07679772  0.90509551     0.16770
O656        O  0.91682973  0.01914182  0.93406842    -0.60150
H657        H  0.06665430  0.17259335  0.95214509     0.16780
O658        O  0.07408617  0.23031798  0.92314433    -0.60250
H659        H  0.10761881  0.23014885  0.92046750     0.43780
H660        H  0.93273190  0.99774573  0.92951854     0.43730
C661        C  0.90804612  0.21474484  0.86626650    -0.05330
C662        C  0.85535333  0.17418030  0.86991603    -0.32760
C663        C  0.81184415  0.18141249  0.86606031     0.36490
C664        C  0.82031136  0.22933594  0.85783158    -0.05690
C665        C  0.87269346  0.26932750  0.85376994    -0.32660
C666        C  0.91626211  0.26295891  0.85817987     0.36400
H667        H  0.84761992  0.13669626  0.87601632     0.16770
O668        O  0.76142787  0.14209124  0.87089363    -0.60150
H669        H  0.88031961  0.30724719  0.84807437     0.16780
O670        O  0.96665532  0.30597904  0.85603541    -0.60250
H671        H  0.97209881  0.31180538  0.84241882     0.43780
H672        H  0.75483073  0.11000863  0.86371385     0.43730
C673        C  0.30366580  0.45458902  0.79117955    -0.05330
C674        C  0.27477739  0.48191244  0.79082207    -0.32760
C675        C  0.27257591  0.50779937  0.77468074     0.36490
C676        C  0.30040288  0.50760584  0.75866693    -0.05690
C677        C  0.32964310  0.48086310  0.75900114    -0.32660
C678        C  0.33109041  0.45409044  0.77500780     0.36400
H679        H  0.25389711  0.48332901  0.80314383     0.16770
O680        O  0.24537045  0.53536860  0.77497826    -0.60150
H681        H  0.35090347  0.48010039  0.74667518     0.16780
O682        O  0.35682236  0.42507565  0.77435416    -0.60250
H683        H  0.39539268  0.45190347  0.77384980     0.43780
H684        H  0.20787795  0.50840390  0.77211558     0.43730
C685        C  0.39291514  0.39148879  0.83656676    -0.05330
C686        C  0.38589305  0.34061744  0.84031709    -0.32760
C687        C  0.42897007  0.33418910  0.84509034     0.36490
C688        C  0.48059389  0.37893640  0.84605068    -0.05690
C689        C  0.48814688  0.42996104  0.84237715    -0.32660
C690        C  0.44457530  0.43657652  0.83798297     0.36400
H691        H  0.34694516  0.30523356  0.83900202     0.16770
O692        O  0.42047071  0.28355730  0.84804653    -0.60150
H693        H  0.52777629  0.46465679  0.84302371     0.16780
O694        O  0.45294827  0.48716372  0.83519124    -0.60250
H695        H  0.44553670  0.49821475  0.84738647     0.43780
H696        H  0.42577851  0.27130447  0.83574298     0.43730
C697        C  0.19808882  0.32669936  0.84158452    -0.05330
C698        C  0.15467030  0.29067850  0.83065737    -0.32760
C699        C  0.10484748  0.25726991  0.83876666     0.36490
C700        C  0.09790964  0.25993345  0.85803877    -0.05690
C701        C  0.14145917  0.29572275  0.86893703    -0.32660
C702        C  0.19112006  0.32902109  0.86086724     0.36400
H703        H  0.15959129  0.28811507  0.81581500     0.16770
O704        O  0.06344524  0.22199072  0.82778966    -0.60150
H705        H  0.13660661  0.29878826  0.88376042     0.16780
O706        O  0.23224969  0.36455132  0.87189577    -0.60250
H707        H  0.23102989  0.39822209  0.87124620     0.43780
H708        H  0.06409589  0.18803367  0.82852010     0.43730
C709        C  0.13432702  0.62652395  0.07774353    -0.05330
C710        C  0.11236465  0.58226358  0.08982516    -0.32760
C711        C  0.13890370  0.58230034  0.10606257     0.36490
C712        C  0.18769475  0.62780367  0.11082819    -0.05690
C713        C  0.20969557  0.67197717  0.09873824    -0.32660
C714        C  0.18375600  0.67152877  0.08230279     0.36400
H715        H  0.07410869  0.54745784  0.08678461     0.16770
O716        O  0.11576071  0.53833596  0.11745656    -0.60150
H717        H  0.24783609  0.70690437  0.10183721     0.16780
O718        O  0.20845985  0.71409155  0.07032416    -0.60250
H719        H  0.20757566  0.74419923  0.07664195     0.43780
H720        H  0.12581557  0.51298739  0.11204128     0.43730
C721        C  0.05769869  0.80259231  0.02314262    -0.05330
C722        C  0.10701124  0.81120093  0.02959949    -0.32760
C723        C  0.11439380  0.76793705  0.03385428     0.36490
C724        C  0.07155003  0.71498380  0.03206829    -0.05690
C725        C  0.02255147  0.70672312  0.02527737    -0.32660
C726        C  0.01561993  0.74976931  0.02062584     0.36400
H727        H  0.13990984  0.85159220  0.03137920     0.16770
O728        O  0.16398896  0.77774303  0.03915450    -0.60150
H729        H  0.98867372  0.66667996  0.02411367     0.16780
O730        O  0.96624957  0.73969161  0.01492654    -0.60250
H731        H  0.96508156  0.73251082  0.00139206     0.43780
H732        H  0.17051187  0.79518926  0.05151725     0.43730
C733        C  0.89538717  0.22953256  0.00298627    -0.05330
C734        C  0.94606388  0.23891816  0.00826800    -0.32760
C735        C  0.95395318  0.19710012  0.01375128     0.36490
C736        C  0.91102719  0.14423661  0.01367906    -0.05690
C737        C  0.86015629  0.13439875  0.00857624    -0.32660
C738        C  0.85197756  0.17665913  0.00341045     0.36400
H739        H  0.98037275  0.27883987  0.00760748     0.16770
O740        O  0.00473201  0.20790417  0.01770677    -0.60150
H741        H  0.82679646  0.09384229  0.00847124     0.16780
O742        O  0.80135973  0.16612888  0.99935319    -0.60250
H743        H  0.79200382  0.14633282  0.98740054     0.43780
H744        H  0.01043363  0.21884906  0.03096275     0.43730
C745        C  0.78108370  0.32273083  0.92459383    -0.05330
C746        C  0.83575270  0.34047950  0.92382279    -0.32760
C747        C  0.86228962  0.33744770  0.93959943     0.36490
C748        C  0.83400833  0.31666932  0.95631476    -0.05690
C749        C  0.77938960  0.29913742  0.95709264    -0.32660
C750        C  0.75289493  0.30224214  0.94133506     0.36400
H751        H  0.85755216  0.35571096  0.91090717     0.16770
O752        O  0.91590719  0.35529075  0.93865276    -0.60150
H753        H  0.75761346  0.28405055  0.97001935     0.16780
O754        O  0.69953112  0.28546337  0.94240795    -0.60250
H755        H  0.69761540  0.31813247  0.94514366     0.43780
H756        H  0.91857821  0.32306759  0.93586442     0.43730
C757        C  0.01790610  0.52254164  0.02483183    -0.05330
C758        C  0.02523672  0.51599448  0.00594193    -0.32760
C759        C  0.99389408  0.46658102  0.99727653     0.36490
C760        C  0.95410320  0.42328305  0.00749115    -0.05690
C761        C  0.94671460  0.42995487  0.02635392    -0.32660
C762        C  0.97802235  0.47926121  0.03500794     0.36400
H763        H  0.05583597  0.54901567  0.99800659     0.16770
O764        O  0.00293541  0.46073044  0.97891258    -0.60150
H765        H  0.91604630  0.39702727  0.03430735     0.16780
O766        O  0.96888913  0.48503712  0.05336879    -0.60250
H767        H  0.94449297  0.49983475  0.05322382     0.43780
H768        H  0.02688054  0.44540409  0.97904681     0.43730
C769        C  0.06049098  0.73119395  0.16871664    -0.05330
C770        C  0.05355212  0.67966100  0.17009515    -0.32760
C771        C  0.09673851  0.67232424  0.17361537     0.36490
C772        C  0.14785945  0.71671951  0.17620903    -0.05690
C773        C  0.15535593  0.76844839  0.17478018    -0.32660
C774        C  0.11191995  0.77593369  0.17105811     0.36400
H775        H  0.01466898  0.64482807  0.16783211     0.16770
O776        O  0.08902457  0.62145778  0.17380133    -0.60150
H777        H  0.19466849  0.80289196  0.17664213     0.16780
O778        O  0.11964923  0.82680703  0.17035702    -0.60250
H779        H  0.13860354  0.84207680  0.15846089     0.43780
H780        H  0.09592496  0.61455329  0.16085827     0.43730
C781        C  0.97169190  0.79506796  0.12466109    -0.05330
C782        C  0.93672235  0.76666594  0.11007591    -0.32760
C783        C  0.93810870  0.79227827  0.09343091     0.36490
C784        C  0.97530078  0.84690281  0.09113205    -0.05690
C785        C  0.01028339  0.87537523  0.10570452    -0.32660
C786        C  0.00826909  0.84995512  0.12247290     0.36400
H787        H  0.90880872  0.72425488  0.11149679     0.16770
O788        O  0.90489566  0.76306583  0.07915835    -0.60150
H789        H  0.03858689  0.91767381  0.10418900     0.16780
O790        O  0.04174321  0.87913737  0.13669148    -0.60250
H791        H  0.02092431  0.89073487  0.14441706     0.43780
H792        H  0.87037672  0.76103940  0.08194430     0.43730
C793        C  0.66359214  0.49279549  0.24614143    -0.05330
C794        C  0.62040140  0.44185594  0.25003434    -0.32760
C795        C  0.61946286  0.41433366  0.26616409     0.36490
C796        C  0.66227278  0.43766092  0.27892279    -0.05690
C797        C  0.70537231  0.48869793  0.27510455    -0.32660
C798        C  0.70620311  0.51638084  0.25896017     0.36400
H799        H  0.58754422  0.42276090  0.24033375     0.16770
O800        O  0.57652904  0.36432955  0.26918984    -0.60150
H801        H  0.73802468  0.50784306  0.28488226     0.16780
O802        O  0.74743606  0.56761462  0.25633599    -0.60250
H803        H  0.77945033  0.56427314  0.25405773     0.43780
H804        H  0.58706961  0.33914263  0.26397249     0.43730
C805        C  0.57368564  0.55326403  0.19964465    -0.05330
C806        C  0.52113430  0.51053138  0.20180640    -0.32760
C807        C  0.47722268  0.51622042  0.19699053     0.36490
C808        C  0.48536003  0.56491752  0.18959216    -0.05690
C809        C  0.53761834  0.60706615  0.18708549    -0.32660
C810        C  0.58139253  0.60198822  0.19222810     0.36400
H811        H  0.51400966  0.47265510  0.20735120     0.16770
O812        O  0.42663439  0.47422180  0.19979655    -0.60150
H813        H  0.54471574  0.64544177  0.18202942     0.16780
O814        O  0.63127618  0.64640703  0.19137843    -0.60250
H815        H  0.63890896  0.65457555  0.17794452     0.43780
H816        H  0.41592107  0.45523866  0.18770025     0.43730
C817        C  0.86622706  0.66927746  0.17553092    -0.05330
C818        C  0.83369289  0.69085291  0.18005202    -0.32760
C819        C  0.78339353  0.65906926  0.18800128     0.36490
C820        C  0.76479033  0.60461321  0.19165789    -0.05690
C821        C  0.79729459  0.58290599  0.18718864    -0.32660
C822        C  0.84769894  0.61477680  0.17916480     0.36400
H823        H  0.84759710  0.73281125  0.17758236     0.16770
O824        O  0.75386908  0.68225741  0.19307642    -0.60150
H825        H  0.78342935  0.54104835  0.18984772     0.16780
O826        O  0.87746028  0.59180266  0.17414106    -0.60250
H827        H  0.89118230  0.58571136  0.18596800     0.43780
H828        H  0.74110966  0.68948968  0.18123863     0.43730
C829        C  0.32885638  0.77061953  0.61451331    -0.05330
C830        C  0.30176225  0.79954543  0.61392994    -0.32760
C831        C  0.29964734  0.82463524  0.59749444     0.36490
C832        C  0.32396984  0.82002050  0.58106762    -0.05690
C833        C  0.35079850  0.79057290  0.58177444    -0.32660
C834        C  0.35392389  0.76667450  0.59832318     0.36400
H835        H  0.28255770  0.80317631  0.62636771     0.16770
O836        O  0.27622041  0.85581855  0.59793656    -0.60150
H837        H  0.36915562  0.78559445  0.56936133     0.16780
O838        O  0.37903286  0.73705844  0.59826222    -0.60250
H839        H  0.41708522  0.76306713  0.60072833     0.43780
H840        H  0.23750912  0.83057653  0.59954942     0.43730
C841        C  0.14636235  0.89661672  0.52522343    -0.05330
C842        C  0.19894526  0.93628914  0.52144114    -0.32760
C843        C  0.24203591  0.92962764  0.52627001     0.36490
C844        C  0.23331646  0.88142202  0.53458223    -0.05690
C845        C  0.18030805  0.84107052  0.53800202    -0.32660
C846        C  0.13718373  0.84858608  0.53360070     0.36400
H847        H  0.20711054  0.97428205  0.51563642     0.16770
O848        O  0.29254664  0.97248174  0.52424929    -0.60150
H849        H  0.17205438  0.80355956  0.54421792     0.16780
O850        O  0.08633809  0.80906313  0.53779527    -0.60250
H851        H  0.07724938  0.78125405  0.52815494     0.43780
H852        H  0.29832373  0.97831882  0.51064179     0.43730
C853        C  0.62923539  0.12344864  0.45777880    -0.05330
C854        C  0.59754734  0.14766684  0.45642096    -0.32760
C855        C  0.59830175  0.17544649  0.44031115     0.36490
C856        C  0.63124731  0.17963608  0.42519814    -0.05690
C857        C  0.66284978  0.15555020  0.42651036    -0.32660
C858        C  0.66174375  0.12729631  0.44249318     0.36400
H859        H  0.57247146  0.14554098  0.46797472     0.16770
O860        O  0.56740817  0.19912351  0.43962677    -0.60150
H861        H  0.68784443  0.15774188  0.41490535     0.16780
O862        O  0.69017611  0.10093133  0.44258978    -0.60250
H863        H  0.72819905  0.12929633  0.44320499     0.43780
H864        H  0.59095822  0.23639742  0.44387764     0.43730
C865        C  0.72136091  0.06441645  0.50302119    -0.05330
C866        C  0.75880489  0.07124295  0.48926151    -0.32760
C867        C  0.80450679  0.06877652  0.49348347     0.36490
C868        C  0.81286217  0.05613830  0.51170296    -0.05690
C869        C  0.77643992  0.05078121  0.52568339    -0.32660
C870        C  0.73149908  0.05563234  0.52156037     0.36400
H871        H  0.75224798  0.07722065  0.47485753     0.16770
O872        O  0.83928410  0.07614651  0.47930261    -0.60150
H873        H  0.78257185  0.04251343  0.53987524     0.16780
O874        O  0.69895376  0.05359963  0.53582788    -0.60250
H875        H  0.68214308  0.01661981  0.54077627     0.43780
H876        H  0.86325148  0.11538855  0.47846132     0.43730
C877        C  0.52261777  0.99137311  0.50762935    -0.05330
C878        C  0.49061176  0.01361309  0.51212735    -0.32760
C879        C  0.44138086  0.98323918  0.52097147     0.36490
C880        C  0.42319902  0.92945892  0.52563206    -0.05690
C881        C  0.45506624  0.90697201  0.52118618    -0.32660
C882        C  0.50444970  0.93745412  0.51222751     0.36400
H883        H  0.50428318  0.05522591  0.50905180     0.16770
O884        O  0.41262232  0.00733517  0.52594412    -0.60150
H885        H  0.44145751  0.86555644  0.52456842     0.16780
O886        O  0.53351165  0.91363325  0.50732092    -0.60250
H887        H  0.54729358  0.90774504  0.51917103     0.43780
H888        H  0.39953787  0.01406878  0.51408813     0.43730
C889        C  0.23815727  0.80995410  0.67987001    -0.05330
C890        C  0.18624219  0.80120276  0.67740650    -0.32760
C891        C  0.17788686  0.84371284  0.67253732     0.36490
C892        C  0.22185807  0.89542740  0.66959160    -0.05690
C893        C  0.27350405  0.90345272  0.67178771    -0.32660
C894        C  0.28172956  0.86150424  0.67689372     0.36400
H895        H  0.15225200  0.76151868  0.67934848     0.16770
O896        O  0.12678708  0.83438293  0.67084100    -0.60150
H897        H  0.30792011  0.94249595  0.66924291     0.16780
O898        O  0.33285352  0.87075048  0.67801843    -0.60250
H899        H  0.34323826  0.88162659  0.69109263     0.43780
H900        H  0.11768358  0.84268178  0.68324458     0.43730
C901        C  0.15860825  0.98752306  0.62532879    -0.05330
C902        C  0.18814407  0.02244589  0.61077537    -0.32760
C903        C  0.16302563  0.02509576  0.59448516     0.36490
C904        C  0.10753777  0.99241832  0.59252519    -0.05690
C905        C  0.07796212  0.95767349  0.60711827    -0.32660
C906        C  0.10305533  0.95522993  0.62344636     0.36400
H907        H  0.23101112  0.04739564  0.61199708     0.16770
O908        O  0.19336673  0.05742898  0.58016756    -0.60150
H909        H  0.03512330  0.93245580  0.60586867     0.16780
O910        O  0.07278438  0.92288571  0.63777672    -0.60250
H911        H  0.06628713  0.88672002  0.63456089     0.43780
H912        H  0.19800157  0.09311467  0.58299944     0.43730
C913        C  0.39778111  0.37924645  0.70406708    -0.05330
C914        C  0.44249789  0.43061540  0.70196635    -0.32760
C915        C  0.43638553  0.47437083  0.69712030     0.36490
C916        C  0.38510269  0.46700212  0.69413753    -0.05690
C917        C  0.34058058  0.41577353  0.69613557    -0.32660
C918        C  0.34646819  0.37240352  0.70135676     0.36400
H919        H  0.48222413  0.43677395  0.70403475     0.16770
O920        O  0.48066029  0.52403455  0.69530605    -0.60150
H921        H  0.30077349  0.40976223  0.69438860     0.16780
O922        O  0.30158581  0.32382654  0.70440880    -0.60250
H923        H  0.29465569  0.32268447  0.71796682     0.43780
H924        H  0.49072298  0.52698901  0.68198152     0.43730
C925        C  0.46712033  0.29309256  0.74778426    -0.05330
C926        C  0.52291668  0.31821482  0.74748119    -0.32760
C927        C  0.55093139  0.31874518  0.76342418     0.36490
C928        C  0.52303775  0.29417265  0.77991362    -0.05690
C929        C  0.46724554  0.26864522  0.78015010    -0.32660
C930        C  0.43929449  0.26838228  0.76425236     0.36400
H931        H  0.54463380  0.33689421  0.73482066     0.16770
O932        O  0.60548391  0.34293180  0.76274005    -0.60150
H933        H  0.44544815  0.24994662  0.79280128     0.16780
O934        O  0.38476307  0.24415421  0.76493315    -0.60250
H935        H  0.37715719  0.27319916  0.76797288     0.43780
H936        H  0.61311253  0.31372906  0.76001201     0.43730
C937        C  0.28071597  0.08894519  0.67752760    -0.05330
C938        C  0.27868125  0.09171362  0.69698851    -0.32760
C939        C  0.30994319  0.14003820  0.70636296     0.36490
C940        C  0.34449601  0.18668945  0.69630253    -0.05690
C941        C  0.34677825  0.18385264  0.67685760    -0.32660
C942        C  0.31562317  0.13552693  0.66748719     0.36400
H943        H  0.25194762  0.05644582  0.70493482     0.16770
O944        O  0.30549872  0.14142893  0.72532865    -0.60150
H945        H  0.37338503  0.21917802  0.66891241     0.16780
O946        O  0.32025466  0.13415621  0.64852819    -0.60250
H947        H  0.34622278  0.12179778  0.64641948     0.43780
H948        H  0.27925764  0.15341379  0.72748509     0.43730
C949        C  0.71821176  0.13828823  0.36102815    -0.05330
C950        C  0.67305891  0.08729940  0.36260686    -0.32760
C951        C  0.67789341  0.04289210  0.36728061     0.36490
C952        C  0.72873130  0.04892438  0.37027922    -0.05690
C953        C  0.77399468  0.09998265  0.36855156    -0.32660
C954        C  0.76895431  0.14442303  0.36396135     0.36400
H955        H  0.63360431  0.08213880  0.36079978     0.16770
O956        O  0.63257251  0.99445319  0.37007164    -0.60150
H957        H  0.81341007  0.10536533  0.37067607     0.16780
O958        O  0.81385314  0.19344981  0.36217960    -0.60250
H959        H  0.82454852  0.19567239  0.34894563     0.43780
H960        H  0.61699714  0.98203472  0.35753745     0.43730
C961        C  0.79800001  0.96228826  0.41386744    -0.05330
C962        C  0.83502606  0.94427445  0.41357321    -0.32760
C963        C  0.86131510  0.94386317  0.42986407     0.36490
C964        C  0.85082384  0.96178915  0.44669023    -0.05690
C965        C  0.81356833  0.97920688  0.44704715    -0.32660
C966        C  0.78700250  0.97930805  0.43085516     0.36400
H967        H  0.84389346  0.93096615  0.40064640     0.16770
O968        O  0.89877765  0.92807741  0.42906747    -0.60150
H969        H  0.80432210  0.99182091  0.46001383     0.16780
O970        O  0.74958606  0.99511699  0.43186879    -0.60250
H971        H  0.71509249  0.96171944  0.43377734     0.43780
H972        H  0.87874697  0.88896413  0.43130026     0.43730
C973        C  0.55697044  0.56695226  0.33444675    -0.05330
C974        C  0.56865718  0.54026521  0.32055302    -0.32760
C975        C  0.57695507  0.49792254  0.32494946     0.36490
C976        C  0.57399032  0.48138569  0.34361362    -0.05690
C977        C  0.56227955  0.50791963  0.35759854    -0.32660
C978        C  0.55317722  0.55003095  0.35310639     0.36400
H979        H  0.57302628  0.55334817  0.30621012     0.16770
O980        O  0.59157137  0.47532683  0.31099247    -0.60150
H981        H  0.55975469  0.49570810  0.37198133     0.16780
O982        O  0.54055409  0.57428456  0.36704085    -0.60250
H983        H  0.50106036  0.55607961  0.36709674     0.43780
H984        H  0.55789778  0.45003355  0.30462686     0.43730
C985        C  0.49321243  0.65677484  0.28996389    -0.05330
C986        C  0.50030361  0.63310723  0.27392517    -0.32760
C987        C  0.47656447  0.63372240  0.25708152     0.36490
C988        C  0.44561441  0.65874718  0.25599982    -0.05690
C989        C  0.43858386  0.68266469  0.27189856    -0.32660
C990        C  0.46138283  0.68108674  0.28886837     0.36400
H991        H  0.52500675  0.61473596  0.27437400     0.16770
O992        O  0.48399493  0.60993408  0.24171439    -0.60150
H993        H  0.41383825  0.70099568  0.27129749     0.16780
O994        O  0.45132695  0.70239153  0.30436792    -0.60250
H995        H  0.42023576  0.67193608  0.31046441     0.43780
H996        H  0.51478795  0.63907900  0.23501912     0.43730
C997        C  0.61452877  0.76042799  0.34236219    -0.05330
C998        C  0.61340797  0.76228656  0.36185589    -0.32760
C999        C  0.64484540  0.81017975  0.37142271     0.36490
C1000       C  0.67809171  0.85747846  0.36147982    -0.05690
C1001       C  0.67929865  0.85566194  0.34198849    -0.32660
C1002       C  0.64790679  0.80773053  0.33241042     0.36400
H1003       H  0.58744954  0.72652781  0.36971880     0.16770
O1004       O  0.64070428  0.81094082  0.39042564    -0.60150
H1005       H  0.70510647  0.89151264  0.33414522     0.16780
O1006       O  0.65207702  0.80698959  0.31340435    -0.60250
H1007       H  0.63474994  0.82672919  0.30858215     0.43780
H1008       H  0.65916034  0.79231175  0.39524566     0.43730
C1009       C  0.87214941  0.99274956  0.09067468    -0.05330
C1010       C  0.88805498  0.98429414  0.10813909    -0.32760
C1011       C  0.86180399  0.98586019  0.12429855     0.36490
C1012       C  0.81864898  0.99514014  0.12301980    -0.05690
C1013       C  0.80333886  0.00454287  0.10559042    -0.32660
C1014       C  0.83004389  0.00362143  0.08939466     0.36400
H1015       H  0.92090112  0.97652533  0.10921806     0.16770
O1016       O  0.87885296  0.97884455  0.14129068    -0.60150
H1017       H  0.77075582  0.01270976  0.10457016     0.16780
O1018       O  0.81586890  0.01451344  0.07242742    -0.60250
H1019       H  0.77728415  0.98872705  0.07095057     0.43780
H1020       H  0.85741555  0.93994313  0.14380773     0.43730
C1021       C  0.66309261  0.90253530  0.16688466    -0.05330
C1022       C  0.62240182  0.91101077  0.17375555    -0.32760
C1023       C  0.57246568  0.86826911  0.17862666     0.36490
C1024       C  0.56117362  0.81521033  0.17620560    -0.05690
C1025       C  0.60146286  0.80622097  0.16932986    -0.32660
C1026       C  0.65227043  0.84926564  0.16488668     0.36400
H1027       H  0.62868826  0.95113256  0.17499706     0.16770
O1028       O  0.53382576  0.87894803  0.18468290    -0.60150
H1029       H  0.59366374  0.76568596  0.16750316     0.16780
O1030       O  0.69154198  0.83881632  0.15935297    -0.60250
H1031       H  0.68041188  0.82174457  0.14694620     0.43780
H1032       H  0.54022395  0.88568119  0.19821920     0.43730
C1033       C  0.82206992  0.29744454  0.24791476    -0.05330
C1034       C  0.80969853  0.25873919  0.26183687    -0.32760
C1035       C  0.78230135  0.25826855  0.27801546     0.36490
C1036       C  0.76646860  0.29671372  0.28046305    -0.05690
C1037       C  0.77900837  0.33550815  0.26656688    -0.32660
C1038       C  0.80608138  0.33578472  0.25035887     0.36400
H1039       H  0.82176899  0.22898504  0.26021802     0.16770
O1040       O  0.77230125  0.22083219  0.29150205    -0.60150
H1041       H  0.76700704  0.36533720  0.26815265     0.16780
O1042       O  0.81562149  0.37295678  0.23681352    -0.60250
H1043       H  0.78476580  0.35529648  0.22825590     0.43780
H1044       H  0.80280794  0.23835846  0.30021142     0.43730
C1045       C  0.97212509  0.38531536  0.20098828    -0.05330
C1046       C  0.98159147  0.43791716  0.20267994    -0.32760
C1047       C  0.03086162  0.48200561  0.19745554     0.36490
C1048       C  0.07142032  0.47397659  0.18998968    -0.05690
C1049       C  0.06155860  0.42152086  0.18792448    -0.32660
C1050       C  0.01335472  0.37775055  0.19372308     0.36400
H1051       H  0.95085726  0.44506434  0.20818503     0.16770
O1052       O  0.03932718  0.53272514  0.20003619    -0.60150
H1053       H  0.09273803  0.41441403  0.18282596     0.16780
O1054       O  0.00833716  0.32796864  0.19309675    -0.60250
H1055       H  0.01866638  0.32225140  0.20565969     0.43780
H1056       H  0.01484891  0.53617382  0.19125657     0.43730
C1057       C  0.80026753  0.09504534  0.17617545    -0.05330
C1058       C  0.80206754  0.13822405  0.16657437    -0.32760
C1059       C  0.81779927  0.18677774  0.17561296     0.36490
C1060       C  0.83265995  0.19288678  0.19447041    -0.05690
C1061       C  0.83049931  0.14956783  0.20411079    -0.32660
C1062       C  0.81465237  0.10095411  0.19507100     0.36400
H1063       H  0.79055495  0.13397328  0.15206962     0.16770
O1064       O  0.81811928  0.22786775  0.16595636    -0.60150
H1065       H  0.84226047  0.15388044  0.21858972     0.16780
O1066       O  0.81422644  0.05979198  0.20470977    -0.60250
H1067       H  0.84970468  0.06352109  0.20238101     0.43780
H1068       H  0.78298365  0.22465773  0.16856137     0.43730
C1069       C  0.99446987  0.40080419  0.33512780    -0.05330
C1070       C  0.95597730  0.35421087  0.34426704    -0.32760
C1071       C  0.90792332  0.34892065  0.35057657     0.36490
C1072       C  0.89516897  0.38905366  0.34692600    -0.05690
C1073       C  0.93345366  0.43612592  0.33806293    -0.32660
C1074       C  0.98310095  0.44272023  0.33250780     0.36400
H1075       H  0.96210606  0.32051446  0.34619624     0.16770
O1076       O  0.87202073  0.30237571  0.35919628    -0.60150
H1077       H  0.92480289  0.46791292  0.33535259     0.16780
O1078       O  0.02068077  0.49089166  0.32517955    -0.60250
H1079       H  0.00604453  0.49399424  0.31307993     0.43780
H1080       H  0.88256666  0.30756483  0.37248330     0.43730
C1081       C  0.14450767  0.45889125  0.28805447    -0.05330
C1082       C  0.11573194  0.45309140  0.27167497    -0.32760
C1083       C  0.14216560  0.47876709  0.25523099     0.36490
C1084       C  0.19819268  0.51035528  0.25494756    -0.05690
C1085       C  0.22702537  0.51613113  0.27120762    -0.32660
C1086       C  0.20063629  0.49152473  0.28774151     0.36400
H1087       H  0.07273488  0.42803978  0.27155344     0.16770
O1088       O  0.11295399  0.47264212  0.23948464    -0.60150
H1089       H  0.27003142  0.54135976  0.27124468     0.16780
O1090       O  0.23007241  0.50062241  0.30363189    -0.60250
H1091       H  0.22916827  0.53072784  0.30993293     0.43780
H1092       H  0.11223899  0.44246298  0.23263260     0.43730
C1093       C  0.15015839  0.16236205  0.41369494    -0.05330
C1094       C  0.09735992  0.11976535  0.41296229    -0.32760
C1095       C  0.07071028  0.09284797  0.42923023     0.36490
C1096       C  0.09658160  0.10905478  0.44651878    -0.05690
C1097       C  0.14879552  0.15233727  0.44731198    -0.32660
C1098       C  0.17567212  0.17891418  0.43105687     0.36400
H1099       H  0.07708538  0.10696087  0.39971222     0.16770
O1100       O  0.01956315  0.05062884  0.42810737    -0.60150
H1101       H  0.16848768  0.16598643  0.46059243     0.16780
O1102       O  0.22657779  0.22147537  0.43229370    -0.60250
H1103       H  0.22241926  0.25349636  0.43302001     0.43780
H1104       H  0.02330136  0.01841548  0.42701153     0.43730
C1105       C  0.40548454  0.24115252  0.35913888    -0.05330
C1106       C  0.36449858  0.19101950  0.36511689    -0.32760
C1107       C  0.31387927  0.18323157  0.36973511     0.36490
C1108       C  0.30394357  0.22637976  0.36878176    -0.05690
C1109       C  0.34517199  0.27635672  0.36266291    -0.32660
C1110       C  0.39514536  0.28376827  0.35769433     0.36400
H1111       H  0.37171081  0.15773490  0.36618130     0.16770
O1112       O  0.27391852  0.13294987  0.37447179    -0.60150
H1113       H  0.33922219  0.31049984  0.36217073     0.16780
O1114       O  0.43480031  0.33392819  0.35268774    -0.60250
H1115       H  0.42940157  0.33696534  0.33922622     0.43780
H1116       H  0.28418085  0.12526430  0.38674588     0.43730
C1117       C  0.16439096  0.27860415  0.36024742    -0.05330
C1118       C  0.15623558  0.27336412  0.34095921    -0.32760
C1119       C  0.13846082  0.30382845  0.33147373     0.36490
C1120       C  0.12944438  0.34107911  0.34122968    -0.05690
C1121       C  0.13787986  0.34642331  0.36051541    -0.32660
C1122       C  0.15537620  0.31576907  0.36999811     0.36400
H1123       H  0.16284260  0.24488448  0.33327377     0.16770
O1124       O  0.12909430  0.29611422  0.31272147    -0.60150
H1125       H  0.13164822  0.37509608  0.36823217     0.16780
O1126       O  0.16447694  0.32316020  0.38876980    -0.60250
H1127       H  0.20306488  0.34931817  0.38997441     0.43780
H1128       H  0.09046821  0.27002701  0.31159173     0.43730
C1129       C  0.74180784  0.89606818  0.02673755    -0.05330
C1130       C  0.70871556  0.89305914  0.01200730    -0.32760
C1131       C  0.65767591  0.88553103  0.01544560     0.36490
C1132       C  0.63959192  0.88239518  0.03393785    -0.05690
C1133       C  0.67282761  0.88487435  0.04857577    -0.32660
C1134       C  0.72265658  0.89025950  0.04512565     0.36400
H1135       H  0.72237122  0.89641306  0.99776364     0.16770
O1136       O  0.62516076  0.87929863  0.00066444    -0.60150
H1137       H  0.66086884  0.88386549  0.06291946     0.16780
O1138       O  0.75354664  0.89294853  0.05998262    -0.60250
H1139       H  0.74099257  0.85526058  0.06344834     0.43780
H1140       H  0.64211151  0.91442567  0.99425742     0.43730
C1141       C  0.48292418  0.81981876  0.07686397    -0.05330
C1142       C  0.47392243  0.76848709  0.08077083    -0.32760
C1143       C  0.44918674  0.74277305  0.09731441     0.36490
C1144       C  0.43167186  0.76786094  0.11014460    -0.05690
C1145       C  0.44008911  0.81895672  0.10616925    -0.32660
C1146       C  0.46600748  0.84525392  0.08978039     0.36400
H1147       H  0.48606716  0.74809910  0.07094420     0.16770
O1148       O  0.44097562  0.69240772  0.10053888    -0.60150
H1149       H  0.42795012  0.83926111  0.11603511     0.16780
O1150       O  0.47742901  0.89694400  0.08703565    -0.60250
H1151       H  0.44254903  0.89466450  0.08483177     0.43780
H1152       H  0.47566181  0.69778644  0.10504646     0.43730
C1153       C  0.53869660  0.17866208  0.92493780    -0.05330
C1154       C  0.56886108  0.17670854  0.93979064    -0.32760
C1155       C  0.54428374  0.15288298  0.95667970     0.36490
C1156       C  0.48842112  0.12906524  0.95857806    -0.05690
C1157       C  0.45849978  0.13080766  0.94359384    -0.32660
C1158       C  0.48327764  0.15606716  0.92704605     0.36400
H1159       H  0.61166226  0.19481947  0.93846542     0.16770
O1160       O  0.57525275  0.15526089  0.97148380    -0.60150
H1161       H  0.41547458  0.11175918  0.94456178     0.16780
O1162       O  0.45264032  0.15694902  0.91275057    -0.60250
H1163       H  0.44487123  0.18574035  0.91604194     0.43780
H1164       H  0.59139580  0.13328936  0.96786894     0.43730
C1165       C  0.33360843  0.06563036  0.00225354    -0.05330
C1166       C  0.30291360  0.07152619  0.98837197    -0.32760
C1167       C  0.25398988  0.06755861  0.99247487     0.36490
C1168       C  0.23304719  0.05513220  0.01072071    -0.05690
C1169       C  0.26416072  0.05057220  0.02478293    -0.32660
C1170       C  0.31427043  0.05628807  0.02074022     0.36400
H1171       H  0.31598458  0.07773087  0.97400270     0.16770
O1172       O  0.22569468  0.07282859  0.97817964    -0.60150
H1173       H  0.24948775  0.04213366  0.03896166     0.16780
O1174       O  0.34464086  0.05436592  0.03501744    -0.60250
H1175       H  0.32503029  0.01713955  0.03976611     0.43780
H1176       H  0.23991910  0.11184342  0.97692327     0.43730
C1177       C  0.46000268  0.99476607  0.00664834    -0.05330
C1178       C  0.47265078  0.00254330  0.02557669    -0.32760
C1179       C  0.49379026  0.97434729  0.03437696     0.36490
C1180       C  0.50234059  0.93764709  0.02419153    -0.05690
C1181       C  0.48998533  0.92992233  0.00521344    -0.32660
C1182       C  0.46897320  0.95842158  0.99636491     0.36400
H1183       H  0.46726503  0.03152663  0.03345916     0.16770
O1184       O  0.50795257  0.98426623  0.05277201    -0.60150
H1185       H  0.49580187  0.90117400  0.99736393     0.16780
O1186       O  0.45559588  0.94931179  0.97789028    -0.60250
H1187       H  0.48996302  0.96644697  0.97103783     0.43780
H1188       H  0.47386862  0.96860833  0.05976688     0.43730
C1189       C  0.43225223  0.62545073  0.61518434    -0.05330
C1190       C  0.48813773  0.65556286  0.61447770    -0.32760
C1191       C  0.51574817  0.65864047  0.59806960     0.36490
C1192       C  0.48722826  0.63208597  0.58190694    -0.05690
C1193       C  0.43121069  0.60197784  0.58273998    -0.32660
C1194       C  0.40384865  0.59802251  0.59924341     0.36400
H1195       H  0.51050153  0.67658541  0.62675119     0.16770
O1196       O  0.57045129  0.68540306  0.59824168    -0.60150
H1197       H  0.40840318  0.58163501  0.57046790     0.16780
O1198       O  0.34922961  0.56961673  0.59936919    -0.60250
H1199       H  0.33982379  0.53199366  0.60153834     0.43780
H1200       H  0.58151162  0.72384493  0.59915682     0.43730
C1201       C  0.63578974  0.72578015  0.53580838    -0.05330
C1202       C  0.68190111  0.72431426  0.54052916    -0.32760
C1203       C  0.73219767  0.76676897  0.53603331     0.36490
C1204       C  0.73711307  0.81147852  0.52649495    -0.05690
C1205       C  0.69113212  0.81358086  0.52184910    -0.32660
C1206       C  0.64037678  0.77085542  0.52652785     0.36400
H1207       H  0.67880035  0.69016230  0.54791338     0.16770
O1208       O  0.77662643  0.76522411  0.54168242    -0.60150
H1209       H  0.69462474  0.84818305  0.51469035     0.16780
O1210       O  0.59570211  0.77295136  0.52168012    -0.60250
H1211       H  0.58846284  0.79003349  0.53240310     0.43780
H1212       H  0.78651383  0.75029779  0.53098248     0.43730
C1213       C  0.22905523  0.14509448  0.51189441    -0.05330
C1214       C  0.26275595  0.17529523  0.52654922    -0.32760
C1215       C  0.31458224  0.21804512  0.52301826     0.36490
C1216       C  0.33292063  0.23235583  0.50449316    -0.05690
C1217       C  0.29919181  0.20122063  0.48998295    -0.32660
C1218       C  0.24872061  0.15756745  0.49352262     0.36400
H1219       H  0.24901836  0.16562036  0.54080302     0.16770
O1220       O  0.34753906  0.24409887  0.53774243    -0.60150
H1221       H  0.31120318  0.21142435  0.47560421     0.16780
O1222       O  0.21778825  0.12920002  0.47869739    -0.60250
H1223       H  0.22986175  0.10360621  0.47536528     0.43780
H1224       H  0.33103293  0.26246610  0.54430676     0.43730
C1225       C  0.53472853  0.32839808  0.42537045    -0.05330
C1226       C  0.47896805  0.30279814  0.42635963    -0.32760
C1227       C  0.45329349  0.30205989  0.44299293     0.36490
C1228       C  0.48349050  0.32649314  0.45910440    -0.05690
C1229       C  0.53944159  0.35231659  0.45804351    -0.32660
C1230       C  0.56505957  0.35327382  0.44135553     0.36400
H1231       H  0.45522377  0.28373708  0.41411105     0.16770
O1232       O  0.39888121  0.27979627  0.44312861    -0.60150
H1233       H  0.56332661  0.37122140  0.47027090     0.16780
O1234       O  0.61963277  0.37747246  0.44092642    -0.60250
H1235       H  0.62770745  0.34855166  0.44356449     0.43780
H1236       H  0.38436875  0.24061594  0.44250763     0.43730
C1237       C  0.46622982  0.42938665  0.51199190    -0.05330
C1238       C  0.52124185  0.46595711  0.51338635    -0.32760
C1239       C  0.54020116  0.51635806  0.52145501     0.36490
C1240       C  0.50403984  0.53138682  0.52845709    -0.05690
C1241       C  0.44909563  0.49490129  0.52710886    -0.32660
C1242       C  0.43009632  0.44463112  0.51894709     0.36400
H1243       H  0.54997236  0.45521639  0.50839508     0.16770
O1244       O  0.59422705  0.54997664  0.52274177    -0.60150
H1245       H  0.42047293  0.50568782  0.53219378     0.16780
O1246       O  0.37604941  0.41147564  0.51750644    -0.60250
H1247       H  0.36663505  0.41834761  0.50496297     0.43780
H1248       H  0.60399594  0.54382981  0.53533279     0.43730
C1249       C  0.81709153  0.49132131  0.74671523    -0.05330
C1250       C  0.80524557  0.51784566  0.76068705    -0.32760
C1251       C  0.78050251  0.49170367  0.77722844     0.36490
C1252       C  0.76702100  0.43812321  0.77995734    -0.05690
C1253       C  0.77862586  0.41151092  0.76594324    -0.32660
C1254       C  0.80303042  0.43754763  0.74935529     0.36400
H1255       H  0.81617419  0.55934900  0.75890633     0.16770
O1256       O  0.77083001  0.51925988  0.79078865    -0.60150
H1257       H  0.76795482  0.37007459  0.76774184     0.16780
O1258       O  0.81236977  0.40992430  0.73572858    -0.60250
H1259       H  0.78073848  0.39550067  0.72749776     0.43780
H1260       H  0.80239135  0.53391263  0.79906267     0.43730
C1261       C  0.97169813  0.55779192  0.70276188    -0.05330
C1262       C  0.97876664  0.51301067  0.70328116    -0.32760
C1263       C  0.02837754  0.51791927  0.69911904     0.36490
C1264       C  0.07149035  0.56795113  0.69398222    -0.05690
C1265       C  0.06436083  0.61247273  0.69331647    -0.32660
C1266       C  0.01541268  0.60800524  0.69788747     0.36400
H1267       H  0.94580379  0.47407927  0.70700483     0.16770
O1268       O  0.03444561  0.47386730  0.70026970    -0.60150
H1269       H  0.09772208  0.65164887  0.69004078     0.16780
O1270       O  0.01197291  0.65365475  0.69897572    -0.60250
H1271       H  0.01557138  0.66674940  0.68600587     0.43780
H1272       H  0.01421158  0.45095633  0.68959470     0.43730
C1273       C  0.65845059  0.72706096  0.67031604    -0.05330
C1274       C  0.65001199  0.77098167  0.66972295    -0.32760
C1275       C  0.60044091  0.76519109  0.67455886     0.36490
C1276       C  0.55890032  0.71535926  0.68067561    -0.05690
C1277       C  0.56759533  0.67186029  0.68163574    -0.32660
C1278       C  0.61638370  0.67703136  0.67629287     0.36400
H1279       H  0.68181097  0.80985940  0.66534365     0.16770
O1280       O  0.59329142  0.80859494  0.67356507    -0.60150
H1281       H  0.53538509  0.63277850  0.68563566     0.16780
O1282       O  0.62104738  0.63203057  0.67555607    -0.60250
H1283       H  0.61946675  0.62059413  0.68866208     0.43780
H1284       H  0.58543442  0.81111363  0.66030673     0.43730
C1285       C  0.81116891  0.79554270  0.62472300    -0.05330
C1286       C  0.83065152  0.77222901  0.61203556    -0.32760
C1287       C  0.85777325  0.79923444  0.59588057     0.36490
C1288       C  0.86510222  0.85023562  0.59192322    -0.05690
C1289       C  0.84529829  0.87342945  0.60453246    -0.32660
C1290       C  0.81874396  0.84669376  0.62082164     0.36400
H1291       H  0.82455107  0.73258729  0.61459001     0.16770
O1292       O  0.87499445  0.77441911  0.58371173    -0.60150
H1293       H  0.85115553  0.91296084  0.60192420     0.16780
O1294       O  0.80291580  0.87207635  0.63329305    -0.60250
H1295       H  0.77201320  0.87221627  0.62743388     0.43780
H1296       H  0.90961821  0.78101642  0.58875112     0.43730
C1297       C  0.80089747  0.67897869  0.67759919    -0.05330
C1298       C  0.81169452  0.64485055  0.66683318    -0.32760
C1299       C  0.82846422  0.61203367  0.67517182     0.36490
C1300       C  0.83436489  0.61277522  0.69461880    -0.05690
C1301       C  0.82395865  0.64719102  0.70537401    -0.32660
C1302       C  0.80718614  0.68001438  0.69703443     0.36400
H1303       H  0.80602626  0.64278474  0.65189854     0.16770
O1304       O  0.83639202  0.57746960  0.66432720    -0.60150
H1305       H  0.82944220  0.64908839  0.72031635     0.16780
O1306       O  0.79914944  0.71452020  0.70787391    -0.60250
H1307       H  0.76631043  0.69162804  0.71514052     0.43780
H1308       H  0.86969773  0.60026281  0.65727708     0.43730
C1309       C  0.30082798  0.05879997  0.86677961    -0.05330
C1310       C  0.32024261  0.06639901  0.84834248    -0.32760
C1311       C  0.37129052  0.10860003  0.84372655     0.36490
C1312       C  0.40336836  0.14550149  0.85747755    -0.05690
C1313       C  0.38210326  0.14023831  0.87540415    -0.32660
C1314       C  0.33313811  0.09653919  0.88035446     0.36400
H1315       H  0.29627335  0.03900910  0.83746306     0.16770
O1316       O  0.38944225  0.11277003  0.82582874    -0.60150
H1317       H  0.40493336  0.16869010  0.88611036     0.16780
O1318       O  0.31927735  0.08987447  0.89881522    -0.60250
H1319       H  0.33299364  0.06712381  0.90387371     0.43780
H1320       H  0.38094615  0.13825942  0.81962757     0.43730
C1321       C  0.14615127  0.96622710  0.91054319    -0.05330
C1322       C  0.09106382  0.94715418  0.91100267    -0.32760
C1323       C  0.06557746  0.94539166  0.92779882     0.36490
C1324       C  0.09500846  0.96144227  0.94442012    -0.05690
C1325       C  0.14980498  0.97983796  0.94398356    -0.32660
C1326       C  0.17551872  0.98254636  0.92720527     0.36400
H1327       H  0.06802098  0.93428906  0.89828528     0.16770
O1328       O  0.01229133  0.92918089  0.92777295    -0.60150
H1329       H  0.17264016  0.99176672  0.95672802     0.16780
O1330       O  0.22886430  0.99876755  0.92732126    -0.60250
H1331       H  0.24738680  0.03814164  0.92886578     0.43780
H1332       H  0.01053410  0.96246901  0.92654135     0.43730
C1333       C  0.99674225  0.56689687  0.83819795    -0.05330
C1334       C  0.99082336  0.51682028  0.84269213    -0.32760
C1335       C  0.94025797  0.47310514  0.84668232     0.36490
C1336       C  0.89518623  0.47943722  0.84616652    -0.05690
C1337       C  0.90118567  0.52939519  0.84179810    -0.32660
C1338       C  0.95126776  0.57269673  0.83758109     0.36400
H1339       H  0.02540710  0.51170500  0.84308335     0.16770
O1340       O  0.93527325  0.42460175  0.85105695    -0.60150
H1341       H  0.86652440  0.53438560  0.84106668     0.16780
O1342       O  0.95512640  0.62011885  0.83226049    -0.60250
H1343       H  0.95313974  0.61863450  0.81848299     0.43780
H1344       H  0.93646290  0.42395356  0.86483633     0.43730
C1345       C  0.14986144  0.65126097  0.79370573    -0.05330
C1346       C  0.20585454  0.68008715  0.79232330    -0.32760
C1347       C  0.23149643  0.68219774  0.77555829     0.36490
C1348       C  0.20121536  0.65415205  0.75996492    -0.05690
C1349       C  0.14552400  0.62473725  0.76132808    -0.32660
C1350       C  0.11970166  0.62356766  0.77792708     0.36400
H1351       H  0.22989270  0.70115360  0.80428982     0.16770
O1352       O  0.28615485  0.70963928  0.77479730    -0.60150
H1353       H  0.12182799  0.60326878  0.74933514     0.16780
O1354       O  0.06503239  0.59803540  0.77821072    -0.60250
H1355       H  0.05294594  0.55931295  0.77752971     0.43780
H1356       H  0.29620330  0.74716972  0.77204878     0.43730
C1357       C  0.13367954  0.76032126  0.84437640    -0.05330
C1358       C  0.14592599  0.80471646  0.83307865    -0.32760
C1359       C  0.16398352  0.85529682  0.84087242     0.36490
C1360       C  0.16967535  0.86203096  0.86027761    -0.05690
C1361       C  0.15777451  0.81774558  0.87156550    -0.32660
C1362       C  0.13974187  0.76717432  0.86378040     0.36400
H1363       H  0.14069458  0.80001761  0.81814541     0.16770
O1364       O  0.17332375  0.89727797  0.82952087    -0.60150
H1365       H  0.16271769  0.82243711  0.88650927     0.16780
O1366       O  0.13029944  0.72519303  0.87515363    -0.60250
H1367       H  0.09661654  0.71561630  0.88179271     0.43780
H1368       H  0.20802659  0.90820479  0.82340706     0.43730
C1369       C  0.47274595  0.14270856  0.24629873    -0.05330
C1370       C  0.44781075  0.16138177  0.25863172    -0.32760
C1371       C  0.47306942  0.18849568  0.27498696     0.36490
C1372       C  0.52372797  0.19633775  0.27954745    -0.05690
C1373       C  0.54845124  0.17723454  0.26731143    -0.32660
C1374       C  0.52374537  0.15122446  0.25076584     0.36400
H1375       H  0.40828379  0.15467320  0.25564591     0.16770
O1376       O  0.44686541  0.20508768  0.28675995    -0.60150
H1377       H  0.58770910  0.18332526  0.27040926     0.16780
O1378       O  0.55038552  0.13533498  0.23891197    -0.60250
H1379       H  0.56922916  0.16533186  0.23002445     0.43780
H1380       H  0.45400252  0.24005233  0.28175385     0.43730
C1381       C  0.41114733  0.99169464  0.19971957    -0.05330
C1382       C  0.36167666  0.95198889  0.19272594    -0.32760
C1383       C  0.35359214  0.90208144  0.18720742     0.36490
C1384       C  0.39474376  0.88991911  0.18912553    -0.05690
C1385       C  0.44439521  0.92942999  0.19594692    -0.32660
C1386       C  0.45308638  0.98023027  0.20097538     0.36400
H1387       H  0.32828264  0.95894832  0.19197817     0.16770
O1388       O  0.30388121  0.86403665  0.18129419    -0.60150
H1389       H  0.47651442  0.92087233  0.19749279     0.16780
O1390       O  0.50305775  0.01882277  0.20648768    -0.60250
H1391       H  0.50879771  0.00690074  0.21876511     0.43780
H1392       H  0.30295845  0.87133007  0.16786429     0.43730
C1393       C  0.11429145  0.08550763  0.09193891    -0.05330
C1394       C  0.08805433  0.10074133  0.10495174    -0.32760
C1395       C  0.11258994  0.12565741  0.12167549     0.36490
C1396       C  0.16478276  0.13656555  0.12555408    -0.05690
C1397       C  0.19048499  0.12013087  0.11268584    -0.32660
C1398       C  0.16542942  0.09415758  0.09616207     0.36400
H1399       H  0.04796005  0.09285688  0.10224205     0.16770
O1400       O  0.08439916  0.13707448  0.13446342    -0.60150
H1401       H  0.23081155  0.12853873  0.11520714     0.16780
O1402       O  0.19242482  0.07991027  0.08384849    -0.60250
H1403       H  0.18632996  0.04479093  0.08830230     0.43780
H1404       H  0.07906832  0.16521665  0.12866901     0.43730
C1405       C  0.22831210  0.29661383  0.16747836    -0.05330
C1406       C  0.23329500  0.31319172  0.18618540    -0.32760
C1407       C  0.23950345  0.36318310  0.19089130     0.36490
C1408       C  0.23931753  0.39706673  0.17685628    -0.05690
C1409       C  0.23138784  0.37919332  0.15836407    -0.32660
C1410       C  0.22762218  0.33060818  0.15351998     0.36400
H1411       H  0.23305603  0.28761687  0.19723285     0.16770
O1412       O  0.24612947  0.37853198  0.20919585    -0.60150
H1413       H  0.23071134  0.40429081  0.14734054     0.16780
O1414       O  0.22808890  0.31916378  0.13499973    -0.60250
H1415       H  0.19395295  0.31375952  0.12988369     0.43780
H1416       H  0.20987923  0.36815028  0.21376237     0.43730
C1417       C  0.35795306  0.13044924  0.19306151    -0.05330
C1418       C  0.37986049  0.18393688  0.18752213    -0.32760
C1419       C  0.34792351  0.20169235  0.17914016     0.36490
C1420       C  0.29302521  0.16589554  0.17650743    -0.05690
C1421       C  0.27113875  0.11264232  0.18235656    -0.32660
C1422       C  0.30304259  0.09487962  0.19060953     0.36400
H1423       H  0.42200787  0.21173023  0.18942262     0.16770
O1424       O  0.37101913  0.25367525  0.17318209    -0.60150
H1425       H  0.22896206  0.08471004  0.18059661     0.16780
O1426       O  0.28000649  0.04278572  0.19646653    -0.60250
H1427       H  0.27175587  0.04356547  0.20982115     0.43780
H1428       H  0.37984811  0.25275486  0.15989949     0.43730
C1429       C  0.39097875  0.96671977  0.33564378    -0.05330
C1430       C  0.44347196  0.97615299  0.33410218    -0.32760
C1431       C  0.48727494  0.02568056  0.33914730     0.36490
C1432       C  0.47904300  0.06642077  0.34632162    -0.05690
C1433       C  0.42670536  0.05667375  0.34821777    -0.32660
C1434       C  0.38302951  0.00783867  0.34277818     0.36400
H1435       H  0.45063179  0.94510020  0.32886685     0.16770
O1436       O  0.53786186  0.03353153  0.33733336    -0.60150
H1437       H  0.41959959  0.08813257  0.35307191     0.16780
O1438       O  0.33311437  0.00230927  0.34314350    -0.60250
H1439       H  0.32432164  0.00214546  0.35649915     0.43780
H1440       H  0.54712558  0.04211301  0.32401050     0.43730
C1441       C  0.30332476  0.75973444  0.25615636    -0.05330
C1442       C  0.34953437  0.78605685  0.26717398    -0.32760
C1443       C  0.35048663  0.81304936  0.28350863     0.36490
C1444       C  0.30469734  0.81478393  0.28918281    -0.05690
C1445       C  0.25863056  0.78891173  0.27802220    -0.32660
C1446       C  0.25739745  0.76097971  0.26188779     0.36400
H1447       H  0.38519818  0.78498790  0.26333479     0.16770
O1448       O  0.39544770  0.83484800  0.29434161    -0.60150
H1449       H  0.22311208  0.79033471  0.28175831     0.16780
O1450       O  0.21148837  0.73646979  0.25158390    -0.60250
H1451       H  0.18919143  0.70111038  0.25754749     0.43780
H1452       H  0.42273366  0.86610348  0.28725832     0.43730
C1453       C  0.99929510  0.80926622  0.41401402    -0.05330
C1454       C  0.96983679  0.77906160  0.42949637    -0.32760
C1455       C  0.96783769  0.80403946  0.44593580     0.36490
C1456       C  0.99616804  0.86017582  0.44727225    -0.05690
C1457       C  0.02594921  0.89053841  0.43195167    -0.32660
C1458       C  0.02696527  0.86564462  0.41533334     0.36400
H1459       H  0.94871643  0.73578518  0.42895931     0.16770
O1460       O  0.93848663  0.77316555  0.46069461    -0.60150
H1461       H  0.04718682  0.93381567  0.43268277     0.16780
O1462       O  0.05406345  0.89692409  0.40035335    -0.60250
H1463       H  0.02700136  0.90065242  0.39311090     0.43780
H1464       H  0.96401594  0.76822232  0.46842588     0.43730
C1465       C  0.90913446  0.65587815  0.36955352    -0.05330
C1466       C  0.88881310  0.64641869  0.35131133    -0.32760
C1467       C  0.84503902  0.59659903  0.34637869     0.36490
C1468       C  0.82152539  0.55563430  0.35975052    -0.05690
C1469       C  0.84265800  0.56511806  0.37774814    -0.32660
C1470       C  0.88571421  0.61454526  0.38276114     0.36400
H1471       H  0.90683340  0.67772598  0.34094065     0.16770
O1472       O  0.82566215  0.58842583  0.32857592    -0.60150
H1473       H  0.82671658  0.53311047  0.38778549     0.16780
O1474       O  0.90684631  0.62101874  0.40027439    -0.60250
H1475       H  0.88219122  0.62595746  0.40854991     0.43780
H1476       H  0.79666376  0.59722640  0.32891215     0.43730
C1477       C  0.10298812  0.78766718  0.36193673    -0.05330
C1478       C  0.14804278  0.79726093  0.37228613    -0.32760
C1479       C  0.19705893  0.81365313  0.36350520     0.36490
C1480       C  0.20173131  0.82111479  0.34408087    -0.05690
C1481       C  0.15653914  0.81099522  0.33374358    -0.32660
C1482       C  0.10764364  0.79471127  0.34249945     0.36400
H1483       H  0.14506801  0.79147411  0.38722133     0.16770
O1484       O  0.23999012  0.82196181  0.37401718    -0.60150
H1485       H  0.15952869  0.81725894  0.31882842     0.16780
O1486       O  0.06498415  0.78710012  0.33196238    -0.60250
H1487       H  0.06556242  0.82171131  0.33237461     0.43780
H1488       H  0.24025178  0.78778201  0.37347310     0.43730
C1489       C  0.15473882  0.22144086  0.02496979    -0.05330
C1490       C  0.17709611  0.25815228  0.01026673    -0.32760
C1491       C  0.21829274  0.31086037  0.01356806     0.36490
C1492       C  0.23790184  0.32728553  0.03178556    -0.05690
C1493       C  0.21542116  0.29031453  0.04637614    -0.32660
C1494       C  0.17429411  0.23814091  0.04314202     0.36400
H1495       H  0.16229907  0.24612637  0.99624048     0.16770
O1496       O  0.23775719  0.34650014  0.99907200    -0.60150
H1497       H  0.23078631  0.30148441  0.06038308     0.16780
O1498       O  0.15571244  0.20274083  0.05772703    -0.60250
H1499       H  0.13024551  0.21029467  0.06444659     0.43780
H1500       H  0.25864952  0.33508752  0.99130368     0.43730
C1501       C  0.32742942  0.48308715  0.07514390    -0.05330
C1502       C  0.31469598  0.45326662  0.09165572    -0.32760
C1503       C  0.31727020  0.47720770  0.10884373     0.36490
C1504       C  0.33162491  0.53137513  0.10972712    -0.05690
C1505       C  0.34435909  0.56133612  0.09325384    -0.32660
C1506       C  0.34266131  0.53765151  0.07603271     0.36400
H1507       H  0.30382935  0.41151489  0.09124951     0.16770
O1508       O  0.30616706  0.44744692  0.12474668    -0.60150
H1509       H  0.35427854  0.60275573  0.09370125     0.16780
O1510       O  0.35524497  0.56789079  0.06015035    -0.60250
H1511       H  0.32079269  0.56263640  0.05544119     0.43780
H1512       H  0.34102295  0.45287258  0.12906579     0.43730
C1513       C  0.63916538  0.47575904  0.95854396    -0.05330
C1514       C  0.60740976  0.41970826  0.95730295    -0.32760
C1515       C  0.60644249  0.39257406  0.94099374     0.36490
C1516       C  0.63806897  0.42136546  0.92567982    -0.05690
C1517       C  0.67052093  0.47697784  0.92704027    -0.32660
C1518       C  0.67049394  0.50434011  0.94306458     0.36400
H1519       H  0.58337340  0.39678617  0.96904781     0.16770
O1520       O  0.57541213  0.33794182  0.94032450    -0.60150
H1521       H  0.69565097  0.49965007  0.91550207     0.16780
O1522       O  0.69861332  0.55920061  0.94298459    -0.60250
H1523       H  0.73675024  0.56923183  0.94270947     0.43780
H1524       H  0.59934606  0.32420843  0.94401312     0.43730
C1525       C  0.72949038  0.62961641  0.00269003    -0.05330
C1526       C  0.74529063  0.64242784  0.02136692    -0.32760
C1527       C  0.78939200  0.69218198  0.02612265     0.36490
C1528       C  0.81823796  0.72982324  0.01209727    -0.05690
C1529       C  0.80242906  0.71662873  0.99349882    -0.32660
C1530       C  0.75853690  0.66745825  0.98875711     0.36400
H1531       H  0.72330932  0.61386263  0.03226370     0.16770
O1532       O  0.80371068  0.70359953  0.04443929    -0.60150
H1533       H  0.82292936  0.74553522  0.98252278     0.16780
O1534       O  0.74194055  0.65830243  0.97057864    -0.60250
H1535       H  0.76956718  0.65434253  0.96374668     0.43780
H1536       H  0.83163236  0.69378558  0.04639425     0.43730
C1537       C  0.53264222  0.50127210  0.00792617    -0.05330
C1538       C  0.49863396  0.44713762  0.01223363    -0.32760
C1539       C  0.44787530  0.42947874  0.01963241     0.36490
C1540       C  0.42973483  0.46603221  0.02262674    -0.05690
C1541       C  0.46367129  0.52020415  0.01824951    -0.32660
C1542       C  0.51482140  0.53798577  0.01101515     0.36400
H1543       H  0.51182960  0.41841348  0.01007451     0.16770
O1544       O  0.41693983  0.37657983  0.02431831    -0.60150
H1545       H  0.45038691  0.54885550  0.02039606     0.16780
O1546       O  0.54603318  0.59073920  0.00617224    -0.60250
H1547       H  0.55867552  0.61035322  0.01810262     0.43780
H1548       H  0.42394649  0.37464032  0.03770677     0.43730
C1549       C  0.18454255  0.52611360  0.61447902    -0.05330
C1550       C  0.20656738  0.50417369  0.60229808    -0.32760
C1551       C  0.18063360  0.47867413  0.58584765     0.36490
C1552       C  0.13094514  0.47366411  0.58145042    -0.05690
C1553       C  0.10868122  0.49524687  0.59374778    -0.32660
C1554       C  0.13532646  0.52191551  0.60996122     0.36400
H1555       H  0.24459336  0.50738591  0.60538658     0.16770
O1556       O  0.20552077  0.46134962  0.57373379    -0.60150
H1557       H  0.07005291  0.49104118  0.59089951     0.16780
O1558       O  0.11175053  0.54166356  0.62163972    -0.60250
H1559       H  0.12086222  0.57696599  0.61637367     0.43780
H1560       H  0.20557826  0.43082955  0.58003247     0.43730
C1561       C  0.06306300  0.32023933  0.53645610    -0.05330
C1562       C  0.10884313  0.31600098  0.53350573    -0.32760
C1563       C  0.10432041  0.26730962  0.52796129     0.36490
C1564       C  0.05360499  0.22237704  0.52519076    -0.05690
C1565       C  0.00801372  0.22678343  0.52798484    -0.32660
C1566       C  0.01238249  0.27490167  0.53383874     0.36400
H1567       H  0.14808819  0.35052348  0.53548593     0.16770
O1568       O  0.14948036  0.26396724  0.52533509    -0.60150
H1569       H  0.96867708  0.19201835  0.52641117     0.16780
O1570       O  0.96682138  0.27669911  0.53758388    -0.60250
H1571       H  0.96062183  0.26972425  0.55112553     0.43780
H1572       H  0.15773742  0.27078547  0.51188053     0.43730
C1573       C  0.90428593  0.73334535  0.51397660    -0.05330
C1574       C  0.94718394  0.72412706  0.51557285    -0.32760
C1575       C  0.94169401  0.67459319  0.51102996     0.36490
C1576       C  0.89169224  0.63197217  0.50531921    -0.05690
C1577       C  0.84821352  0.64095396  0.50420518    -0.32660
C1578       C  0.85453004  0.69144321  0.50807155     0.36400
H1579       H  0.98620329  0.75656919  0.51937450     0.16770
O1580       O  0.98656397  0.66987037  0.51068361    -0.60150
H1581       H  0.80930348  0.60901374  0.50003972     0.16780
O1582       O  0.81175733  0.69918513  0.50623416    -0.60250
H1583       H  0.81040792  0.70633168  0.49281495     0.43780
H1584       H  0.99773505  0.67231907  0.52385205     0.43730
C1585       C  0.82548421  0.47978847  0.45936195    -0.05330
C1586       C  0.79879176  0.42355246  0.45804717    -0.32760
C1587       C  0.77412309  0.39733809  0.44147472     0.36490
C1588       C  0.77396146  0.42708432  0.42604088    -0.05690
C1589       C  0.79856035  0.48281212  0.42755665    -0.32660
C1590       C  0.82547833  0.50937133  0.44374457     0.36400
H1591       H  0.79699019  0.39964021  0.46991566     0.16770
O1592       O  0.74787748  0.34254534  0.44083041    -0.60150
H1593       H  0.79765887  0.50619278  0.41603745     0.16780
O1594       O  0.85441858  0.56421938  0.44367981    -0.60250
H1595       H  0.82779150  0.57620781  0.44294802     0.43780
H1596       H  0.77573505  0.33325955  0.43786743     0.43730
C1597       C  0.94644473  0.49356341  0.51132983    -0.05330
C1598       C  0.94459493  0.48814374  0.53075936    -0.32760
C1599       C  0.97650460  0.47165603  0.53988597     0.36490
C1600       C  0.01062799  0.45967883  0.52954144    -0.05690
C1601       C  0.01259186  0.46510965  0.51013805    -0.32660
C1602       C  0.98102454  0.48206206  0.50100780     0.36400
H1603       H  0.91788280  0.49623132  0.53890774     0.16770
O1604       O  0.97218760  0.46487933  0.55882706    -0.60150
H1605       H  0.03922170  0.45678224  0.50203876     0.16780
O1606       O  0.98627318  0.48990933  0.48212034    -0.60250
H1607       H  0.96978923  0.45362477  0.47658969     0.43780
H1608       H  0.99099521  0.50150703  0.56410769     0.43730
C1609       C  0.73079736  0.64885204  0.87062670    -0.05330
C1610       C  0.74979712  0.64326081  0.85321149    -0.32760
C1611       C  0.74570477  0.59443793  0.84804211     0.36490
C1612       C  0.72215933  0.55084600  0.86034856    -0.05690
C1613       C  0.70236571  0.55637074  0.87750180    -0.32660
C1614       C  0.70645831  0.60474398  0.88269686     0.36400
H1615       H  0.76821922  0.67691032  0.84374329     0.16770
O1616       O  0.76494399  0.58982262  0.83111089    -0.60150
H1617       H  0.68208650  0.52229868  0.88666545     0.16780
O1618       O  0.68551417  0.60821609  0.89943549    -0.60250
H1619       H  0.64838334  0.59911533  0.89665918     0.43780
H1620       H  0.80168098  0.59716925  0.83358789     0.43730
C1621       C  0.79289623  0.80132872  0.91546584    -0.05330
C1622       C  0.84227630  0.80547708  0.91922402    -0.32760
C1623       C  0.87111857  0.83173960  0.93509402     0.36490
C1624       C  0.85174803  0.85643918  0.94737662    -0.05690
C1625       C  0.80223089  0.85220734  0.94369925    -0.32660
C1626       C  0.77251515  0.82441053  0.92803253     0.36400
H1627       H  0.85903984  0.78861897  0.90971512     0.16770
O1628       O  0.91900379  0.83414373  0.93813242    -0.60150
H1629       H  0.78581296  0.86938174  0.95322207     0.16780
O1630       O  0.72244408  0.81754322  0.92567731    -0.60250
H1631       H  0.72797873  0.85359118  0.92285700     0.43780
H1632       H  0.90982056  0.79936778  0.94388796     0.43730
C1633       C  0.49900932  0.80942056  0.79117640    -0.05330
C1634       C  0.50293613  0.83922143  0.77521578    -0.32760
C1635       C  0.47657041  0.81373266  0.75883788     0.36490
C1636       C  0.44682012  0.75759330  0.75809662    -0.05690
C1637       C  0.44298537  0.72761623  0.77390541    -0.32660
C1638       C  0.46837014  0.75307060  0.79045139     0.36400
H1639       H  0.52699203  0.88243005  0.77535784     0.16770
O1640       O  0.48167167  0.84387663  0.74340618    -0.60150
H1641       H  0.41889257  0.68439246  0.77358876     0.16780
O1642       O  0.46064254  0.72279660  0.80609581    -0.60250
H1643       H  0.47922149  0.70239664  0.80362703     0.43780
H1644       H  0.45514042  0.85569925  0.74511235     0.43730
C1645       C  0.56402500  0.96395378  0.83545447    -0.05330
C1646       C  0.61532204  0.00746136  0.83850866    -0.32760
C1647       C  0.62275126  0.05758792  0.84311182     0.36490
C1648       C  0.57861821  0.06508599  0.84500534    -0.05690
C1649       C  0.52717991  0.02200461  0.84187473    -0.32660
C1650       C  0.51961723  0.97144555  0.83718012     0.36400
H1651       H  0.65008005  0.00298644  0.83679344     0.16770
O1652       O  0.67363794  0.09978574  0.84492443    -0.60150
H1653       H  0.49295274  0.02754580  0.84311007     0.16780
O1654       O  0.46881097  0.92929878  0.83497739    -0.60250
H1655       H  0.45606183  0.93607507  0.82305359     0.43780
H1656       H  0.68373284  0.11610015  0.83237076     0.43730
C1657       C  0.68050486  0.78906014  0.86126074    -0.05330
C1658       C  0.64620261  0.80067786  0.87150945    -0.32760
C1659       C  0.61616927  0.81984730  0.86270730     0.36490
C1660       C  0.61999241  0.82744162  0.84331473    -0.05690
C1661       C  0.65437642  0.81590568  0.83304875    -0.32660
C1662       C  0.68438569  0.79661093  0.84187363     0.36400
H1663       H  0.64210777  0.79413630  0.88641022     0.16770
O1664       O  0.58123008  0.82848960  0.87301693    -0.60150
H1665       H  0.65830474  0.82230204  0.81814425     0.16780
O1666       O  0.71902134  0.78744798  0.83159743    -0.60250
H1667       H  0.69625387  0.75406315  0.82458381     0.43780
H1668       H  0.60377728  0.86150870  0.88024407     0.43730
C1669       C  0.06198745  0.29222286  0.67232902    -0.05330
C1670       C  0.05850970  0.33769768  0.66809635    -0.32760
C1671       C  0.10042222  0.38859757  0.67222131     0.36490
C1672       C  0.14652516  0.39470585  0.68094959    -0.05690
C1673       C  0.15044834  0.34939752  0.68523312    -0.32660
C1674       C  0.10829012  0.29805804  0.68090247     0.36400
H1675       H  0.02336279  0.33363547  0.66124946     0.16770
O1676       O  0.09709986  0.43237361  0.66678124    -0.60150
H1677       H  0.18608644  0.35387733  0.69180271     0.16780
O1678       O  0.11206068  0.25398144  0.68545962    -0.60250
H1679       H  0.12965016  0.24792927  0.67462694     0.43780
H1680       H  0.09156176  0.44744249  0.67839421     0.43730
C1681       C  0.97402625  0.14068909  0.62713551    -0.05330
C1682       C  0.00550068  0.17224152  0.61223085    -0.32760
C1683       C  0.00509786  0.14921127  0.59506900     0.36490
C1684       C  0.97145464  0.09391865  0.59229842    -0.05690
C1685       C  0.93974333  0.06223275  0.60704837    -0.32660
C1686       C  0.94163860  0.08487482  0.62444748     0.36400
H1687       H  0.02988647  0.21518304  0.61370625     0.16770
O1688       O  0.03618089  0.18144279  0.58083757    -0.60150
H1689       H  0.91482081  0.01941142  0.60527365     0.16780
O1690       O  0.91230612  0.05178728  0.63877162    -0.60250
H1691       H  0.93730332  0.04384133  0.64556119     0.43780
H1692       H  0.07248845  0.18751807  0.58329030     0.43730
C1693       C  0.57806013  0.98098079  0.70428565    -0.05330
C1694       C  0.52635838  0.97306539  0.70658247    -0.32760
C1695       C  0.48141124  0.92384310  0.70237797     0.36490
C1696       C  0.48753134  0.88227781  0.69479146    -0.05690
C1697       C  0.53904336  0.89026422  0.69232108    -0.32660
C1698       C  0.58400715  0.93853769  0.69728760     0.36400
H1699       H  0.52059863  0.00496265  0.71186951     0.16770
O1700       O  0.43180003  0.91709634  0.70558733    -0.60150
H1701       H  0.54446560  0.85789245  0.68736082     0.16780
O1702       O  0.63313068  0.94224623  0.69661325    -0.60250
H1703       H  0.64079163  0.94104998  0.68321834     0.43780
H1704       H  0.42475889  0.90820720  0.71899452     0.43730
C1705       C  0.66644425  0.19095473  0.78080527    -0.05330
C1706       C  0.62412776  0.17216506  0.76806836    -0.32760
C1707       C  0.62401583  0.14490043  0.75199549     0.36490
C1708       C  0.66663379  0.13576960  0.74846349    -0.05690
C1709       C  0.70901150  0.15460852  0.76117934    -0.32660
C1710       C  0.70938236  0.18237415  0.77716827     0.36400
H1711       H  0.59120146  0.17926838  0.77043032     0.16770
O1712       O  0.58347990  0.12973253  0.73937461    -0.60150
H1713       H  0.74183368  0.14738021  0.75878937     0.16780
O1714       O  0.75074403  0.19889049  0.78949725    -0.60250
H1715       H  0.77951750  0.23325561  0.78444732     0.43780
H1716       H  0.55189150  0.09910653  0.74518901     0.43730
C1717       C  0.76885948  0.12134061  0.69534728    -0.05330
C1718       C  0.79937567  0.17509125  0.68995418    -0.32760
C1719       C  0.84927929  0.19405295  0.68160043     0.36490
C1720       C  0.86937925  0.15913836  0.67873359    -0.05690
C1721       C  0.83882298  0.10544935  0.68410672    -0.32660
C1722       C  0.78911632  0.08653865  0.69248862     0.36400
H1723       H  0.78427390  0.20226894  0.69212488     0.16770
O1724       O  0.87772237  0.24646807  0.67606997    -0.60150
H1725       H  0.85399773  0.07828431  0.68203446     0.16780
O1726       O  0.76120686  0.03427708  0.69823738    -0.60250
H1727       H  0.77051525  0.03499882  0.71154117     0.43780
H1728       H  0.86874789  0.24627505  0.66275726     0.43730
loop_ 
_geom_bond_atom_site_label_1 
_geom_bond_atom_site_label_2 
_geom_bond_distance 
_geom_bond_site_symmetry_2 
_ccdc_geom_bond_type 
C1            C2   1.404       .  A
C1            C6   1.400       .  A
C1         C1708   1.479       .  S
C2            C3   1.406       .  A
C2            H7   1.083       .  S
C3            C4   1.404       .  A
C3         C1693   1.488   1_545  S
C4            C5   1.400       .  A
C4            H8   1.082       .  S
C5            C6   1.397       .  A
C5         C1717   1.474       .  S
C6            H9   1.084       .  S
C10          C11   1.400   1_455  A
C10          C15   1.405       .  A
C10        C1669   1.474       .  S
C11          C12   1.399       .  A
C11          H16   1.084       .  S
C12          C13   1.398       .  A
C12        C1720   1.473       .  S
C13          C14   1.403       .  A
C13          H17   1.083       .  S
C14          C15   1.411   1_655  A
C14        C1681   1.490       .  S
C15          H18   1.083       .  S
C19          C20   1.403       .  A
C19          C24   1.405       .  A
C19        C1645   1.483       .  S
C20          C21   1.400       .  A
C20          H25   1.083       .  S
C21          C22   1.399       .  A
C21        C1660   1.477       .  S
C22          C23   1.402       .  A
C22          H26   1.083       .  S
C23          C24   1.407       .  A
C23        C1633   1.483       .  S
C24          H27   1.083       .  S
C28          C29   1.400       .  A
C28          C33   1.404       .  A
C28        C1609   1.476       .  S
C29          C30   1.402       .  A
C29          H34   1.083       .  S
C30          C31   1.401       .  A
C30        C1657   1.475       .  S
C31          C32   1.401       .  A
C31          H35   1.083       .  S
C32          C33   1.406       .  A
C32        C1621   1.485       .  S
C33          H36   1.084       .  S
C37          C38   1.405       .  A
C37          C42   1.408       .  A
C37        C1576   1.494       .  S
C38          C39   1.401       .  A
C38          H43   1.082       .  S
C39          C40   1.401       .  A
C39        C1597   1.483       .  S
C40          C41   1.404       .  A
C40          H44   1.082       .  S
C41          C42   1.410       .  A
C41        C1585   1.493       .  S
C42          H45   1.081       .  S
C46          C47   1.404       .  A
C46          C51   1.408       .  A
C46        C1552   1.487       .  S
C47          C48   1.400       .  A
C47          H52   1.083       .  S
C48          C49   1.401       .  A
C48        C1600   1.479       .  S
C49          C50   1.403       .  A
C49          H53   1.084       .  S
C50          C51   1.404       .  A
C50        C1561   1.481       .  S
C51          H54   1.082       .  S
C55          C56   1.404   1_556  A
C55          C60   1.405       .  A
C55        C1525   1.486   1_556  S
C56          C57   1.407   1_554  A
C56          H61   1.083       .  S
C57          C58   1.403       .  A
C57        C1537   1.482   1_556  S
C58          C59   1.401       .  A
C58          H62   1.084       .  S
C59          C60   1.405       .  A
C59        C1513   1.489       .  S
C60          H63   1.083       .  S
C64          C65   1.400       .  A
C64          C69   1.404       .  A
C64        C1501   1.482       .  S
C65          C66   1.403       .  A
C65          H70   1.084       .  S
C66          C67   1.407       .  A
C66        C1540   1.484       .  S
C67          C68   1.405       .  A
C67          H71   1.083       .  S
C68          C69   1.408       .  A
C68        C1492   1.489       .  S
C69          H72   1.084       .  S
C73          C74   1.406       .  A
C73          C78   1.407   1_455  A
C73        C1453   1.492   1_455  S
C74          C75   1.405       .  A
C74          H79   1.083       .  S
C75          C76   1.404       .  A
C75        C1477   1.483       .  S
C76          C77   1.401   1_455  A
C76          H80   1.084       .  S
C77          C78   1.405       .  A
C77        C1465   1.482       .  S
C78          H81   1.083       .  S
C82          C83   1.406       .  A
C82          C87   1.412       .  A
C82        C1444   1.497       .  S
C83          C84   1.401       .  A
C83          H88   1.083       .  S
C84          C85   1.401       .  A
C84        C1480   1.483       .  S
C85          C86   1.405       .  A
C85          H89   1.082       .  S
C86          C87   1.411       .  A
C86        C1429   1.494       .  S
C87          H90   1.082       .  S
C91          C92   1.406       .  A
C91          C96   1.409       .  A
C91        C1405   1.494       .  S
C92          C93   1.404       .  A
C92          H97   1.083       .  S
C93          C94   1.401       .  A
C93        C1420   1.480       .  S
C94          C95   1.401       .  A
C94          H98   1.084       .  S
C95          C96   1.405       .  A
C95        C1396   1.489       .  S
C96          H99   1.079       .  S
C100        C101   1.403       .  A
C100        C105   1.411       .  A
C100       C1369   1.488       .  S
C101        C102   1.397       .  A
C101        H106   1.084       .  S
C102        C103   1.400       .  A
C102       C1417   1.476       .  S
C103        C104   1.406       .  A
C103        H107   1.084       .  S
C104        C105   1.411       .  A
C104       C1381   1.494   1_545  S
C105        H108   1.082       .  S
C109        C110   1.404       .  A
C109        C114   1.407       .  A
C109       C1345   1.486       .  S
C110        C111   1.401       .  A
C110        H115   1.083       .  S
C111        C112   1.403       .  A
C111       C1357   1.481       .  S
C112        C113   1.403       .  A
C112        H116   1.083       .  S
C113        C114   1.402       .  A
C113       C1333   1.480   1_455  S
C114        H117   1.083       .  S
C118        C119   1.396       .  A
C118        C123   1.402   1_565  A
C118       C1321   1.477       .  S
C119        C120   1.400       .  A
C119        H124   1.084       .  S
C120        C121   1.406       .  A
C120       C1360   1.480       .  S
C121        C122   1.410   1_565  A
C121        H125   1.082       .  S
C122        C123   1.411       .  A
C122       C1309   1.500       .  S
C123        H126   1.081       .  S
C127        C128   1.404       .  A
C127        C132   1.408       .  A
C127       C1285   1.487       .  S
C128        C129   1.400       .  A
C128        H133   1.084       .  S
C129        C130   1.400       .  A
C129       C1297   1.480       .  S
C130        C131   1.404       .  A
C130        H134   1.081       .  S
C131        C132   1.408       .  A
C131       C1273   1.489       .  S
C132        H135   1.083       .  S
C136        C137   1.405       .  A
C136        C141   1.405       .  A
C136       C1261   1.486       .  S
C137        C138   1.402       .  A
C137        H142   1.082       .  S
C138        C139   1.401       .  A
C138       C1300   1.480       .  S
C139        C140   1.401       .  A
C139        H143   1.084       .  S
C140        C141   1.404       .  A
C140       C1249   1.478       .  S
C141        H144   1.084       .  S
C145        C146   1.400       .  A
C145        C150   1.404       .  A
C145       C1228   1.487       .  S
C146        C147   1.406       .  A
C146        H151   1.084       .  S
C147        C148   1.410       .  A
C147       C1237   1.493       .  S
C148        C149   1.409       .  A
C148        H152   1.079       .  S
C149        C150   1.410       .  A
C149       C1216   1.500       .  S
C150        H153   1.083       .  S
C154        C155   1.403       .  A
C154        C159   1.407       .  A
C154       C1192   1.486       .  S
C155        C156   1.402       .  A
C155        H160   1.084       .  S
C156        C157   1.405       .  A
C156       C1240   1.489       .  S
C157        C158   1.403       .  A
C157        H161   1.083       .  S
C158        C159   1.403       .  A
C158       C1201   1.475       .  S
C159        H162   1.083       .  S
C163        C164   1.406   1_556  A
C163        C168   1.409       .  A
C163       C1165   1.492   1_556  S
C164        C165   1.402   1_554  A
C164        H169   1.082       .  S
C165        C166   1.393       .  A
C165       C1177   1.468   1_546  S
C166        C167   1.395       .  A
C166        H170   1.082       .  S
C167        C168   1.405       .  A
C167       C1156   1.479       .  S
C168        H171   1.083       .  S
C172        C173   1.407       .  A
C172        C177   1.410       .  A
C172       C1132   1.491       .  S
C173        C174   1.401       .  A
C173        H178   1.082       .  S
C174        C175   1.394       .  A
C174       C1180   1.467       .  S
C175        C176   1.394       .  A
C175        H179   1.084       .  S
C176        C177   1.403       .  A
C176       C1141   1.479       .  S
C177        H180   1.083       .  S
C181        C182   1.409       .  A
C181        C186   1.409       .  A
C181       C1108   1.495       .  S
C182        C183   1.404       .  A
C182        H187   1.083       .  S
C183        C184   1.402       .  A
C183       C1117   1.482       .  S
C184        C185   1.400       .  A
C184        H188   1.084       .  S
C185        C186   1.406       .  A
C185       C1093   1.480       .  S
C186        H189   1.082       .  S
C190        C191   1.401       .  A
C190        C195   1.410       .  A
C190       C1081   1.487       .  S
C191        C192   1.398       .  A
C191        H196   1.083       .  S
C192        C193   1.403       .  A
C192       C1120   1.485       .  S
C193        C194   1.412       .  A
C193        H197   1.082       .  S
C194        C195   1.413       .  A
C194       C1069   1.504   1_455  S
C195        H198   1.080       .  S
C199        C200   1.402       .  A
C199        C204   1.411       .  A
C199       C1033   1.486       .  S
C200        C201   1.399       .  A
C200        H205   1.084       .  S
C201        C202   1.401       .  A
C201       C1060   1.479       .  S
C202        C203   1.407       .  A
C202        H206   1.083       .  S
C203        C204   1.412       .  A
C203       C1045   1.498       .  S
C204        H207   1.083       .  S
C208        C209   1.398   1_565  A
C208        C213   1.404       .  A
C208       C1012   1.473       .  S
C209        C210   1.400       .  A
C209        H214   1.084       .  S
C210        C211   1.403   1_545  A
C210       C1057   1.478       .  S
C211        C212   1.411       .  A
C211        H215   1.083       .  S
C212        C213   1.410       .  A
C212       C1021   1.497       .  S
C213        H216   1.082       .  S
C217        C218   1.403       .  A
C217        C222   1.406       .  A
C217        C985   1.486       .  S
C218        C219   1.403       .  A
C218        H223   1.082       .  S
C219        C220   1.404       .  A
C219        C997   1.483       .  S
C220        C221   1.403       .  A
C220        H224   1.084       .  S
C221        C222   1.407       .  A
C221        C973   1.487       .  S
C222        H225   1.084       .  S
C226        C227   1.402       .  A
C226        C231   1.406   1_565  A
C226        C961   1.483       .  S
C227        C228   1.403       .  A
C227        H232   1.083       .  S
C228        C229   1.403       .  A
C228       C1000   1.482       .  S
C229        C230   1.404   1_565  A
C229        H233   1.083       .  S
C230        C231   1.405       .  A
C230        C952   1.485       .  S
C231        H234   1.084       .  S
C235        C236   1.401       .  A
C235        C240   1.405       .  A
C235        C925   1.476       .  S
C236        C237   1.403       .  A
C236        H241   1.084       .  S
C237        C238   1.404       .  A
C237        C940   1.484       .  S
C238        C239   1.407       .  A
C238        H242   1.084       .  S
C239        C240   1.407       .  A
C239        C913   1.488       .  S
C240        H243   1.084       .  S
C244        C245   1.402   1_565  A
C244        C249   1.410       .  A
C244        C901   1.484       .  S
C245        C246   1.401       .  A
C245        H250   1.084       .  S
C246        C247   1.403   1_545  A
C246        C937   1.485       .  S
C247        C248   1.407       .  A
C247        H251   1.084       .  S
C248        C249   1.410       .  A
C248        C892   1.491       .  S
C249        H252   1.083       .  S
C253        C254   1.403       .  A
C253        C258   1.405       .  A
C253        C853   1.493       .  S
C254        C255   1.405       .  A
C254        H259   1.084       .  S
C255        C256   1.406       .  A
C255        C877   1.487   1_545  S
C256        C257   1.408       .  A
C256        H260   1.080       .  S
C257        C258   1.410       .  A
C257        C865   1.500       .  S
C258        H261   1.082       .  S
C262        C263   1.406       .  A
C262        C267   1.414       .  A
C262        C844   1.502       .  S
C263        C264   1.400       .  A
C263        H268   1.082       .  S
C264        C265   1.400       .  A
C264        C880   1.484       .  S
C265        C266   1.407       .  A
C265        H269   1.084       .  S
C266        C267   1.415       .  A
C266        C832   1.497       .  S
C267        H270   1.081       .  S
C271        C272   1.403       .  A
C271        C276   1.412       .  A
C271        C793   1.490       .  S
C272        C273   1.399       .  A
C272        H277   1.083       .  S
C273        C274   1.400       .  A
C273        C820   1.480       .  S
C274        C275   1.406       .  A
C274        H278   1.082       .  S
C275        C276   1.411       .  A
C275        C805   1.496       .  S
C276        H279   1.083       .  S
C280        C281   1.401       .  A
C280        C285   1.402   1_655  A
C280        C781   1.476       .  S
C281        C282   1.402       .  A
C281        H286   1.084       .  S
C282        C283   1.403       .  A
C282        C817   1.481       .  S
C283        C284   1.405   1_655  A
C283        H287   1.083       .  S
C284        C285   1.403       .  A
C284        C769   1.480       .  S
C285        H288   1.083       .  S
C289        C290   1.407   1_556  A
C289        C294   1.409       .  A
C289        C733   1.488   1_556  S
C290        C291   1.400   1_554  A
C290        H295   1.084       .  S
C291        C292   1.396       .  A
C291        C760   1.473   1_556  S
C292        C293   1.396       .  A
C292        H296   1.085       .  S
C293        C294   1.404       .  A
C293        C748   1.468       .  S
C294        H297   1.082       .  S
C298        C299   1.406       .  A
C298        C303   1.406       .  A
C298        C724   1.489       .  S
C299        C300   1.400       .  A
C299        H304   1.083       .  S
C300        C301   1.398       .  A
C300        C757   1.473       .  S
C301        C302   1.402       .  A
C301        H305   1.084       .  S
C302        C303   1.406       .  A
C302        C709   1.487       .  S
C303        H306   1.081       .  S
C307        C308   1.405       .  A
C307        C312   1.407       .  A
C307        C685   1.488       .  S
C308        C309   1.400       .  A
C308        H313   1.084       .  S
C309        C310   1.398       .  A
C309        C697   1.477       .  S
C310        C311   1.402       .  A
C310        H314   1.084       .  S
C311        C312   1.409       .  A
C311        C673   1.486       .  S
C312        H315   1.082       .  S
C316        C317   1.397   1_655  A
C316        C321   1.406       .  A
C316        C649   1.479       .  S
C317        C318   1.396       .  A
C317        H322   1.084       .  S
C318        C319   1.402       .  A
C318        C700   1.477       .  S
C319        C320   1.409   1_455  A
C319        H323   1.081       .  S
C320        C321   1.412       .  A
C320        C661   1.498       .  S
C321        H324   1.083       .  S
O325        C336   1.292       .  A
O325       Eu361   2.461       .  S
O326        C337   1.290       .  A
O326       Eu360   2.446       .  S
O327        C338   1.289       .  A
O327       Eu333   2.450       .  S
O328        C339   1.292       .  A
O328       Eu333   2.469       .  S
O329        C339   1.290       .  A
O329       Eu363   2.452       .  S
O330        C338   1.291       .  A
O330       Eu362   2.454       .  S
O331        C337   1.293       .  A
O331       Eu333   2.472       .  S
O332        C336   1.289       .  A
O332       Eu333   2.438       .  S
Eu333       O343   2.355       .  S
Eu333       O335   2.362       .  S
Eu333       O334   2.340       .  S
Eu333       O341   2.354       .  S
O334       Eu363   2.355       .  S
O334       Eu360   2.346       .  S
O335       Eu361   2.347       .  S
O335       Eu362   2.345       .  S
C336       C1705   1.475       .  S
C337       C1312   1.489       .  S
C338       C1648   1.469       .  S
C339        C928   1.471       .  S
H340        O341   0.966       .  S
O341       Eu362   2.354       .  S
O341       Eu360   2.357       .  S
H342        O343   0.965       .  S
O343       Eu361   2.358       .  S
O343       Eu363   2.352       .  S
O344        C367   1.294       .  A
O344       Eu360   2.474       .  S
O345        C368   1.291       .  A
O345       Eu361   2.462       .  S
O346        C369   1.292       .  A
O346       Eu362   2.464       .  S
O347        C370   1.291       .  A
O347       Eu363   2.459       .  S
O348        C371   1.292       .  A
O348       Eu363   2.462       .  S
O349        C372   1.291       .  A
O349       Eu362   2.460       .  S
O350        C373   1.292       .  A
O350       Eu364   2.470       .  S
O351        C374   1.290       .  A
O351       Eu364   2.448       .  S
O352        C373   1.287       .  A
O352       Eu362   2.437       .  S
O353        C374   1.291       .  A
O353       Eu363   2.464       .  S
O354        C369   1.287       .  A
O354       Eu360   2.431       .  S
O355        C372   1.294       .  A
O355       Eu361   2.470       .  S
O356        C371   1.289       .  A
O356       Eu361   2.445       .  S
O357        C370   1.290       .  A
O357       Eu360   2.450       .  S
O358        C367   1.288       .  A
O358       Eu364   2.436       .  S
O359        C368   1.289       .  A
O359       Eu364   2.448       .  S
Eu360       O378   2.340       .  S
Eu360       O366   2.340       .  S
Eu361       O365   2.358       .  S
Eu361       O376   2.347       .  S
Eu362       O376   2.358       .  S
Eu362       O366   2.343       .  S
Eu363       O365   2.350       .  S
Eu363       O378   2.356       .  S
Eu364       O365   2.348       .  S
Eu364       O376   2.346       .  S
Eu364       O378   2.357       .  S
Eu364       O366   2.341       .  S
C367       C1516   1.474       .  S
C368       C1336   1.467       .  S
C369       C1153   1.469       .  S
C370        C688   1.471       .  S
C371       C1252   1.473       .  S
C372        C664   1.484       .  S
C373        C745   1.463       .  S
C374       C1612   1.467       .  S
H375        O376   0.965       .  S
H377        O378   0.965       .  S
O379        C390   1.295       .  A
O379       Eu415   2.478       .  S
O380        C391   1.292       .  A
O380       Eu414   2.465       .  S
O381        C392   1.292       .  A
O381       Eu387   2.470   1_455  S
O382        C393   1.290       .  A
O382       Eu387   2.448   1_554  S
O383        C393   1.293       .  A
O383       Eu417   2.474       .  S
O384        C392   1.288   1_545  A
O384       Eu416   2.442       .  S
O385        C391   1.289       .  A
O385       Eu387   2.441   1_454  S
O386        C390   1.285       .  A
O386       Eu387   2.423       .  S
Eu387       O397   2.353   1_556  S
Eu387       O389   2.339       .  S
Eu387       O388   2.346   1_556  S
Eu387       O395   2.345   1_656  S
O388       Eu417   2.348       .  S
O388       Eu414   2.356   1_655  S
O389       Eu415   2.344       .  S
O389       Eu416   2.349   1_665  S
C390       C1624   1.481       .  S
C391        C721   1.476       .  S
C392       C1324   1.468       .  S
C393       C1528   1.480       .  S
H394        O395   0.966       .  S
O395       Eu416   2.364   1_564  S
O395       Eu414   2.356       .  S
H396        O397   0.965       .  S
O397       Eu415   2.340   1_554  S
O397       Eu417   2.350       .  S
O398        C421   1.293       .  A
O398       Eu414   2.468   1_545  S
O399        C422   1.290       .  A
O399       Eu415   2.455   1_544  S
O400        C423   1.290       .  A
O400       Eu416   2.447   1_554  S
O401        C424   1.291       .  A
O401       Eu417   2.456       .  S
O402        C425   1.289       .  A
O402       Eu417   2.441       .  S
O403        C426   1.294   1_455  A
O403       Eu416   2.473       .  S
O404        C427   1.289       .  A
O404       Eu418   2.447   1_455  S
O405        C428   1.290   1_545  A
O405       Eu418   2.457       .  S
O406        C427   1.293       .  A
O406       Eu416   2.474   1_554  S
O407        C428   1.291       .  A
O407       Eu417   2.460       .  S
O408        C423   1.294       .  A
O408       Eu414   2.470   1_545  S
O409        C426   1.288       .  A
O409       Eu415   2.435   1_545  S
O410        C425   1.292       .  A
O410       Eu415   2.459   1_554  S
O411        C424   1.290   1_455  A
O411       Eu414   2.450       .  S
O412        C421   1.290       .  A
O412       Eu418   2.446   1_455  S
O413        C422   1.292       .  A
O413       Eu418   2.459       .  S
Eu414       O432   2.355   1_455  S
Eu414       O420   2.354   1_565  S
Eu415       O419   2.350   1_556  S
Eu415       O430   2.366   1_566  S
Eu416       O430   2.343   1_456  S
Eu416       O420   2.350   1_556  S
Eu417       O419   2.355       .  S
Eu417       O432   2.346       .  S
Eu418       O419   2.346   1_545  S
Eu418       O430   2.352       .  S
Eu418       O432   2.348   1_545  S
Eu418       O420   2.353   1_655  S
C421       C1393   1.479       .  S
C422        C736   1.473       .  S
C423       C1168   1.486       .  S
C424        C784   1.469       .  S
C425       C1129   1.478       .  S
C426        C652   1.475       .  S
C427       C1489   1.482       .  S
C428       C1009   1.467       .  S
H429        O430   0.965   1_455  S
H431        O432   0.965       .  S
O433        C444   1.295       .  A
O433       Eu469   2.480       .  S
O434        C445   1.288       .  A
O434       Eu468   2.440       .  S
O435        C446   1.291       .  A
O435       Eu441   2.455       .  S
O436        C447   1.294       .  A
O436       Eu441   2.474       .  S
O437        C447   1.290       .  A
O437       Eu471   2.450       .  S
O438        C446   1.291       .  A
O438       Eu470   2.466       .  S
O439        C445   1.296       .  A
O439       Eu441   2.486       .  S
O440        C444   1.289       .  A
O440       Eu441   2.446       .  S
Eu441       O451   2.356       .  S
Eu441       O443   2.360       .  S
Eu441       O442   2.350       .  S
Eu441       O449   2.355       .  S
O442       Eu471   2.357       .  S
O442       Eu468   2.349       .  S
O443       Eu469   2.354       .  S
O443       Eu470   2.357       .  S
C444       C1588   1.477       .  S
C445        C976   1.480       .  S
C446       C1468   1.477       .  S
C447       C1225   1.474       .  S
H448        O449   0.965       .  S
O449       Eu470   2.344       .  S
O449       Eu468   2.364       .  S
H450        O451   0.965       .  S
O451       Eu469   2.354       .  S
O451       Eu471   2.352       .  S
O452        C475   1.295       .  A
O452       Eu468   2.477       .  S
O453        C476   1.292       .  A
O453       Eu469   2.469       .  S
O454        C477   1.297       .  A
O454       Eu470   2.490       .  S
O455        C478   1.291       .  A
O455       Eu471   2.460       .  S
O456        C479   1.294       .  A
O456       Eu471   2.473       .  S
O457        C480   1.291       .  A
O457       Eu470   2.461       .  S
O458        C481   1.296       .  A
O458       Eu472   2.486       .  S
O459        C482   1.292       .  A
O459       Eu472   2.462       .  S
O460        C481   1.288       .  A
O460       Eu470   2.441       .  S
O461        C482   1.294       .  A
O461       Eu471   2.471       .  S
O462        C477   1.286       .  A
O462       Eu468   2.430       .  S
O463        C480   1.295       .  A
O463       Eu469   2.476       .  S
O464        C479   1.291       .  A
O464       Eu469   2.456       .  S
O465        C478   1.292       .  A
O465       Eu468   2.462       .  S
O466        C475   1.288       .  A
O466       Eu472   2.435       .  S
O467        C476   1.290       .  A
O467       Eu472   2.453       .  S
Eu468       O486   2.338       .  S
Eu468       O474   2.345       .  S
Eu469       O473   2.356       .  S
Eu469       O484   2.358       .  S
Eu470       O484   2.371       .  S
Eu470       O474   2.348       .  S
Eu471       O473   2.352       .  S
Eu471       O486   2.355       .  S
Eu472       O473   2.350       .  S
Eu472       O484   2.348       .  S
Eu472       O486   2.364       .  S
Eu472       O474   2.347       .  S
C475       C1372   1.482       .  S
C476        C949   1.476       .  S
C477        C796   1.484       .  S
C478       C1105   1.480       .  S
C479        C856   1.480       .  S
C480       C1072   1.487       .  S
C481       C1036   1.482       .  S
C482       C1432   1.481       .  S
H483        O484   0.965       .  S
H485        O486   0.965       .  S
O487        C498   1.289       .  A
O487       Eu523   2.449       .  S
O488        C499   1.295       .  A
O488       Eu522   2.477       .  S
O489        C500   1.290       .  A
O489       Eu495   2.456       .  S
O490        C501   1.296       .  A
O490       Eu495   2.484       .  S
O491        C501   1.288       .  A
O491       Eu525   2.443       .  S
O492        C500   1.292       .  A
O492       Eu524   2.460       .  S
O493        C499   1.287       .  A
O493       Eu495   2.431       .  S
O494        C498   1.292       .  A
O494       Eu495   2.458       .  S
Eu495       O505   2.347       .  S
Eu495       O497   2.344       .  S
Eu495       O496   2.348       .  S
Eu495       O503   2.363       .  S
O496       Eu525   2.350       .  S
O496       Eu522   2.350       .  S
O497       Eu523   2.357       .  S
O497       Eu524   2.345       .  S
C498       C1696   1.477       .  S
C499       C1189   1.471       .  S
C500       C1276   1.474       .  S
C501        C829   1.477       .  S
H502        O503   0.965       .  S
O503       Eu524   2.349       .  S
O503       Eu522   2.343       .  S
H504        O505   0.965       .  S
O505       Eu523   2.350       .  S
O505       Eu525   2.359       .  S
O506        C529   1.289       .  A
O506       Eu522   2.451       .  S
O507        C530   1.293       .  A
O507       Eu523   2.469       .  S
O508        C531   1.290       .  A
O508       Eu524   2.458       .  S
O509        C532   1.293       .  A
O509       Eu525   2.465       .  S
O510        C533   1.289       .  A
O510       Eu525   2.455       .  S
O511        C534   1.292       .  A
O511       Eu524   2.465       .  S
O512        C535   1.294       .  A
O512       Eu526   2.475       .  S
O513        C536   1.290       .  A
O513       Eu526   2.455       .  S
O514        C535   1.287       .  A
O514       Eu524   2.437       .  S
O515        C536   1.291       .  A
O515       Eu525   2.453       .  S
O516        C531   1.292       .  A
O516       Eu522   2.466       .  S
O517        C534   1.288       .  A
O517       Eu523   2.438       .  S
O518        C533   1.296       .  A
O518       Eu523   2.484       .  S
O519        C532   1.289       .  A
O519       Eu522   2.439       .  S
O520        C529   1.292       .  A
O520       Eu526   2.466       .  S
O521        C530   1.288       .  A
O521       Eu526   2.439       .  S
Eu522       O540   2.363       .  S
Eu522       O528   2.347       .  S
Eu523       O527   2.345       .  S
Eu523       O538   2.359       .  S
Eu524       O538   2.353       .  S
Eu524       O528   2.351       .  S
Eu525       O527   2.349       .  S
Eu525       O540   2.350       .  S
Eu526       O527   2.362       .  S
Eu526       O538   2.352       .  S
Eu526       O540   2.354       .  S
Eu526       O528   2.345       .  S
C529       C1672   1.466       .  S
C530       C1348   1.469       .  S
C531        C916   1.476       .  S
C532       C1549   1.479       .  S
C533        C889   1.480       .  S
C534       C1636   1.466       .  S
C535        C676   1.472       .  S
C536       C1264   1.473       .  S
H537        O538   0.965       .  S
H539        O540   0.965       .  S
O541        C552   1.294       .  A
O541       Eu577   2.478       .  S
O542        C553   1.291       .  A
O542       Eu576   2.461       .  S
O543        C554   1.289       .  A
O543       Eu549   2.440       .  S
O544        C555   1.292       .  A
O544       Eu549   2.462       .  S
O545        C555   1.290       .  A
O545       Eu579   2.447       .  S
O546        C554   1.293       .  A
O546       Eu578   2.470       .  S
O547        C553   1.295       .  A
O547       Eu549   2.477       .  S
O548        C552   1.290       .  A
O548       Eu549   2.457       .  S
Eu549       O559   2.347       .  S
Eu549       O551   2.361       .  S
Eu549       O550   2.347       .  S
Eu549       O557   2.348       .  S
O550       Eu579   2.360       .  S
O550       Eu576   2.350       .  S
O551       Eu577   2.349       .  S
O551       Eu578   2.353       .  S
C552       C1504   1.474       .  S
C553       C1048   1.485       .  S
C554       C1408   1.483       .  S
C555        C712   1.481       .  S
H556        O557   0.965       .  S
O557       Eu578   2.346       .  S
O557       Eu576   2.360       .  S
H558        O559   0.965       .  S
O559       Eu577   2.351       .  S
O559       Eu579   2.349       .  S
O560        C583   1.296       .  A
O560       Eu576   2.484       .  S
O561        C584   1.292       .  A
O561       Eu577   2.465       .  S
O562        C585   1.294       .  A
O562       Eu578   2.477       .  S
O563        C586   1.290       .  A
O563       Eu579   2.454       .  S
O564        C587   1.294       .  A
O564       Eu579   2.474       .  S
O565        C588   1.291       .  A
O565       Eu578   2.459       .  S
O566        C589   1.293       .  A
O566       Eu580   2.470       .  S
O567        C590   1.291       .  A
O567       Eu580   2.462       .  S
O568        C589   1.288       .  A
O568       Eu578   2.442       .  S
O569        C590   1.293       .  A
O569       Eu579   2.466       .  S
O570        C585   1.288       .  A
O570       Eu576   2.438       .  S
O571        C588   1.293       .  A
O571       Eu577   2.463       .  S
O572        C587   1.286       .  A
O572       Eu577   2.424       .  S
O573        C586   1.290       .  A
O573       Eu576   2.453       .  S
O574        C583   1.289       .  A
O574       Eu580   2.439       .  S
O575        C584   1.292       .  A
O575       Eu580   2.462       .  S
Eu576       O594   2.347       .  S
Eu576       O582   2.349       .  S
Eu577       O581   2.359       .  S
Eu577       O592   2.351       .  S
Eu578       O592   2.365       .  S
Eu578       O582   2.353       .  S
Eu579       O581   2.347       .  S
Eu579       O594   2.354       .  S
Eu580       O581   2.348       .  S
Eu580       O592   2.351       .  S
Eu580       O594   2.358       .  S
Eu580       O582   2.352       .  S
C583       C1441   1.490       .  S
C584       C1024   1.484       .  S
C585       C1084   1.471       .  S
C586        C772   1.468       .  S
C587       C1144   1.474       .  S
C588        C808   1.480       .  S
C589        C988   1.470       .  S
C590       C1384   1.481       .  S
H591        O592   0.965       .  S
H593        O594   0.965       .  S
O595        C606   1.295       .  A
O595       Eu631   2.476   1_545  S
O596        C607   1.290       .  A
O596       Eu630   2.450   1_545  S
O597        C608   1.296   1_545  A
O597       Eu603   2.489       .  S
O598        C609   1.291       .  A
O598       Eu603   2.463       .  S
O599        C609   1.291       .  A
O599       Eu633   2.459   1_455  S
O600        C608   1.288       .  A
O600       Eu632   2.439   1_455  S
O601        C607   1.294       .  A
O601       Eu603   2.477       .  S
O602        C606   1.288   1_455  A
O602       Eu603   2.435       .  S
Eu603       O613   2.372   1_455  S
Eu603       O605   2.352   1_445  S
Eu603       O604   2.352       .  S
Eu603       O611   2.345   1_545  S
O604       Eu633   2.353   1_455  S
O604       Eu630   2.355   1_545  S
O605       Eu631   2.352       .  S
O605       Eu632   2.345       .  S
C606       C1684   1.474       .  S
C607       C1213   1.489       .  S
C608        C904   1.479       .  S
C609       C1564   1.470       .  S
H610        O611   0.965       .  S
O611       Eu632   2.364   1_455  S
O611       Eu630   2.355       .  S
H612        O613   0.965       .  S
O613       Eu631   2.345   1_545  S
O613       Eu633   2.355       .  S
O614        C637   1.293   1_455  A
O614       Eu630   2.466       .  S
O615        C638   1.290       .  A
O615       Eu631   2.456       .  S
O616        C639   1.290       .  A
O616       Eu632   2.456   1_455  S
O617        C640   1.292       .  A
O617       Eu633   2.465   1_455  S
O618        C641   1.289       .  A
O618       Eu633   2.445       .  S
O619        C642   1.294       .  A
O619       Eu632   2.472       .  S
O620        C643   1.289       .  A
O620       Eu634   2.452       .  S
O621        C644   1.292       .  A
O621       Eu634   2.467       .  S
O622        C643   1.291       .  A
O622       Eu632   2.456       .  S
O623        C644   1.290   1_545  A
O623       Eu633   2.453       .  S
O624        C639   1.296       .  A
O624       Eu630   2.478       .  S
O625        C642   1.289       .  A
O625       Eu631   2.443       .  S
O626        C641   1.294       .  A
O626       Eu631   2.477   1_545  S
O627        C640   1.291       .  A
O627       Eu630   2.462   1_545  S
O628        C637   1.291       .  A
O628       Eu634   2.457       .  S
O629        C638   1.293       .  A
O629       Eu634   2.471       .  S
Eu630       O648   2.353   1_455  S
Eu630       O636   2.351   1_455  S
Eu631       O635   2.353       .  S
Eu631       O646   2.365       .  S
Eu632       O646   2.344       .  S
Eu632       O636   2.349       .  S
Eu633       O635   2.353   1_545  S
Eu633       O648   2.349   1_545  S
Eu634       O635   2.352       .  S
Eu634       O646   2.356       .  S
Eu634       O648   2.352       .  S
Eu634       O636   2.356       .  S
C637       C1456   1.476       .  S
C638       C1204   1.469       .  S
C639        C841   1.485       .  S
C640       C1096   1.471       .  S
C641        C868   1.493       .  S
C642       C1288   1.482       .  S
C643       C1573   1.476       .  S
C644        C964   1.470       .  S
H645        O646   0.965       .  S
H647        O648   0.966       .  S
C649        C650   1.401       .  A
C649        C654   1.411   1_655  A
C650        C651   1.398       .  A
C650        H655   1.084       .  S
C651        C652   1.413       .  A
C651        O656   1.372       .  S
C652        C653   1.401   1_655  A
C653        C654   1.400       .  A
C653        H657   1.084       .  S
C654        O658   1.373       .  S
O656        H660   0.992   1_545  S
O658        H659   0.992       .  S
C661        C662   1.408       .  A
C661        C666   1.415       .  A
C662        C663   1.405       .  A
C662        H667   1.083       .  S
C663        C664   1.410       .  A
C663        O668   1.372       .  S
C664        C665   1.403       .  A
C665        C666   1.400       .  A
C665        H669   1.084       .  S
C666        O670   1.373       .  S
O668        H672   0.992       .  S
O670        H671   0.992       .  S
C673        C674   1.408       .  A
C673        C678   1.410       .  A
C674        C675   1.400       .  A
C674        H679   1.083       .  S
C675        C676   1.405       .  A
C675        O680   1.372       .  S
C676        C677   1.403       .  A
C677        C678   1.400       .  A
C677        H681   1.084       .  S
C678        O682   1.372       .  S
O680        H684   0.992       .  S
O682        H683   0.992       .  S
C685        C686   1.405       .  A
C685        C690   1.413       .  A
C686        C687   1.394       .  A
C686        H691   1.083       .  S
C687        C688   1.407       .  A
C687        O692   1.373       .  S
C688        C689   1.403       .  A
C689        C690   1.404       .  A
C689        H693   1.084       .  S
C690        O694   1.371       .  S
O692        H696   0.992       .  S
O694        H695   0.992       .  S
C697        C698   1.406       .  A
C697        C702   1.407       .  A
C698        C699   1.399       .  A
C698        H703   1.084       .  S
C699        C700   1.407       .  A
C699        O704   1.371       .  S
C700        C701   1.405       .  A
C701        C702   1.394       .  A
C701        H705   1.084       .  S
C702        O706   1.372       .  S
O704        H708   0.992       .  S
O706        H707   0.992       .  S
C709        C710   1.407       .  A
C709        C714   1.410       .  A
C710        C711   1.399       .  A
C710        H715   1.083       .  S
C711        C712   1.409       .  A
C711        O716   1.372       .  S
C712        C713   1.406       .  A
C713        C714   1.398       .  A
C713        H717   1.084       .  S
C714        O718   1.373       .  S
O716        H720   0.992       .  S
O718        H719   0.992       .  S
C721        C722   1.402       .  A
C721        C726   1.410       .  A
C722        C723   1.403       .  A
C722        H727   1.084       .  S
C723        C724   1.414       .  A
C723        O728   1.373       .  S
C724        C725   1.405       .  A
C725        C726   1.396       .  A
C725        H729   1.083   1_455  S
C726        O730   1.372   1_455  S
O728        H732   0.992       .  S
O730        H731   0.992       .  S
C733        C734   1.406       .  A
C733        C738   1.412       .  A
C734        C735   1.394       .  A
C734        H739   1.083       .  S
C735        C736   1.407       .  A
C735        O740   1.373   1_655  S
C736        C737   1.404       .  A
C737        C738   1.405       .  A
C737        H741   1.084       .  S
C738        O742   1.372   1_554  S
O740        H744   0.992       .  S
O742        H743   0.992       .  S
C745        C746   1.400       .  A
C745        C750   1.407       .  A
C746        C747   1.399       .  A
C746        H751   1.084       .  S
C747        C748   1.407       .  A
C747        O752   1.371       .  S
C748        C749   1.400       .  A
C749        C750   1.398       .  A
C749        H753   1.084       .  S
C750        O754   1.371       .  S
O752        H756   0.992       .  S
O754        H755   0.992       .  S
C757        C758   1.401       .  A
C757        C762   1.409   1_455  A
C758        C759   1.398   1_454  A
C758        H763   1.084   1_554  S
C759        C760   1.410   1_556  A
C759        O764   1.372   1_655  S
C760        C761   1.400       .  A
C761        C762   1.396       .  A
C761        H765   1.084       .  S
C762        O766   1.372       .  S
O764        H768   0.992       .  S
O766        H767   0.992       .  S
C769        C770   1.402       .  A
C769        C774   1.412       .  A
C770        C771   1.393       .  A
C770        H775   1.084       .  S
C771        C772   1.405       .  A
C771        O776   1.371       .  S
C772        C773   1.402       .  A
C773        C774   1.405       .  A
C773        H777   1.083       .  S
C774        O778   1.372       .  S
O776        H780   0.992       .  S
O778        H779   0.992       .  S
C781        C782   1.404       .  A
C781        C786   1.407   1_655  A
C782        C783   1.398       .  A
C782        H787   1.084       .  S
C783        C784   1.406       .  A
C783        O788   1.372       .  S
C784        C785   1.404   1_655  A
C785        C786   1.398       .  A
C785        H789   1.084       .  S
C786        O790   1.372       .  S
O788        H792   0.992       .  S
O790        H791   0.992       .  S
C793        C794   1.403       .  A
C793        C798   1.414       .  A
C794        C795   1.399       .  A
C794        H799   1.084       .  S
C795        C796   1.415       .  A
C795        O800   1.372       .  S
C796        C797   1.402       .  A
C797        C798   1.404       .  A
C797        H801   1.084       .  S
C798        O802   1.373       .  S
O800        H804   0.992       .  S
O802        H803   0.992       .  S
C805        C806   1.409       .  A
C805        C810   1.415       .  A
C806        C807   1.405       .  A
C806        H811   1.083       .  S
C807        C808   1.409       .  A
C807        O812   1.372       .  S
C808        C809   1.401       .  A
C809        C810   1.398       .  A
C809        H813   1.084       .  S
C810        O814   1.372       .  S
O812        H816   0.992       .  S
O814        H815   0.992       .  S
C817        C818   1.402       .  A
C817        C822   1.411       .  A
C818        C819   1.397       .  A
C818        H823   1.084       .  S
C819        C820   1.409       .  A
C819        O824   1.372       .  S
C820        C821   1.404       .  A
C821        C822   1.402       .  A
C821        H825   1.084       .  S
C822        O826   1.372       .  S
O824        H828   0.992       .  S
O826        H827   0.992       .  S
C829        C830   1.404       .  A
C829        C834   1.405       .  A
C830        C831   1.404       .  A
C830        H835   1.084       .  S
C831        C832   1.413       .  A
C831        O836   1.372       .  S
C832        C833   1.411       .  A
C833        C834   1.402       .  A
C833        H837   1.083       .  S
C834        O838   1.372       .  S
O836        H840   0.992       .  S
O838        H839   0.992       .  S
C841        C842   1.400       .  A
C841        C846   1.411       .  A
C842        C843   1.399       .  A
C842        H847   1.084       .  S
C843        C844   1.417       .  A
C843        O848   1.372       .  S
C844        C845   1.409       .  A
C845        C846   1.407       .  A
C845        H849   1.083       .  S
C846        O850   1.371       .  S
O848        H852   0.992       .  S
O850        H851   0.992       .  S
C853        C854   1.408       .  A
C853        C858   1.413       .  A
C854        C855   1.404       .  A
C854        H859   1.083       .  S
C855        C856   1.409       .  A
C855        O860   1.372       .  S
C856        C857   1.403       .  A
C857        C858   1.401       .  A
C857        H861   1.084       .  S
C858        O862   1.373       .  S
O860        H864   0.992       .  S
O862        H863   0.992       .  S
C865        C866   1.405       .  A
C865        C870   1.416       .  A
C866        C867   1.395       .  A
C866        H871   1.083       .  S
C867        C868   1.414       .  A
C867        O872   1.371       .  S
C868        C869   1.407       .  A
C869        C870   1.409       .  A
C869        H873   1.083       .  S
C870        O874   1.372       .  S
O872        H876   0.992       .  S
O874        H875   0.992       .  S
C877        C878   1.403   1_565  A
C877        C882   1.412       .  A
C878        C879   1.397   1_545  A
C878        H883   1.084       .  S
C879        C880   1.409       .  A
C879        O884   1.372   1_565  S
C880        C881   1.405       .  A
C881        C882   1.405       .  A
C881        H885   1.084       .  S
C882        O886   1.372       .  S
O884        H888   0.992       .  S
O886        H887   0.992       .  S
C889        C890   1.406       .  A
C889        C894   1.406       .  A
C890        C891   1.410       .  A
C890        H895   1.084       .  S
C891        C892   1.413       .  A
C891        O896   1.371       .  S
C892        C893   1.404       .  A
C893        C894   1.396       .  A
C893        H897   1.084       .  S
C894        O898   1.369       .  S
O896        H900   0.992       .  S
O898        H899   0.990       .  S
C901        C902   1.407   1_565  A
C901        C906   1.406       .  A
C902        C903   1.403       .  A
C902        H907   1.084       .  S
C903        C904   1.406   1_545  A
C903        O908   1.371       .  S
C904        C905   1.407       .  A
C905        C906   1.403       .  A
C905        H909   1.084       .  S
C906        O910   1.372       .  S
O908        H912   0.992       .  S
O910        H911   0.992       .  S
C913        C914   1.407       .  A
C913        C918   1.412       .  A
C914        C915   1.405       .  A
C914        H919   1.083       .  S
C915        C916   1.408       .  A
C915        O920   1.371       .  S
C916        C917   1.402       .  A
C917        C918   1.398       .  A
C917        H921   1.084       .  S
C918        O922   1.372       .  S
O920        H924   0.992       .  S
O922        H923   0.992       .  S
C925        C926   1.402       .  A
C925        C930   1.408       .  A
C926        C927   1.402       .  A
C926        H931   1.084       .  S
C927        C928   1.409       .  A
C927        O932   1.372       .  S
C928        C929   1.401       .  A
C929        C930   1.400       .  A
C929        H933   1.084       .  S
C930        O934   1.372       .  S
O932        H936   0.992       .  S
O934        H935   0.992       .  S
C937        C938   1.404       .  A
C937        C942   1.411       .  A
C938        C939   1.400       .  A
C938        H943   1.084       .  S
C939        C940   1.411       .  A
C939        O944   1.372       .  S
C940        C941   1.404       .  A
C941        C942   1.399       .  A
C941        H945   1.084       .  S
C942        O946   1.372       .  S
O944        H948   0.992       .  S
O946        H947   0.992       .  S
C949        C950   1.402       .  A
C949        C954   1.406       .  A
C950        C951   1.399       .  A
C950        H955   1.084       .  S
C951        C952   1.411       .  A
C951        O956   1.373   1_545  S
C952        C953   1.406       .  A
C953        C954   1.402       .  A
C953        H957   1.083       .  S
C954        O958   1.368       .  S
O956        H960   0.992       .  S
O958        H959   0.992       .  S
C961        C962   1.407       .  A
C961        C966   1.410       .  A
C962        C963   1.402       .  A
C962        H967   1.084       .  S
C963        C964   1.406       .  A
C963        O968   1.372       .  S
C964        C965   1.400       .  A
C965        C966   1.398       .  A
C965        H969   1.081       .  S
C966        O970   1.372       .  S
O968        H972   0.992       .  S
O970        H971   0.992       .  S
C973        C974   1.401       .  A
C973        C978   1.413       .  A
C974        C975   1.396       .  A
C974        H979   1.084       .  S
C975        C976   1.413       .  A
C975        O980   1.373       .  S
C976        C977   1.403       .  A
C977        C978   1.405       .  A
C977        H981   1.083       .  S
C978        O982   1.371       .  S
O980        H984   0.992       .  S
O982        H983   0.992       .  S
C985        C986   1.406       .  A
C985        C990   1.413       .  A
C986        C987   1.399       .  A
C986        H991   1.083       .  S
C987        C988   1.407       .  A
C987        O992   1.373       .  S
C988        C989   1.401       .  A
C989        C990   1.400       .  A
C989        H993   1.084       .  S
C990        O994   1.372       .  S
O992        H996   0.992       .  S
O994        H995   0.992       .  S
C997        C998   1.403       .  A
C997       C1002   1.411       .  A
C998        C999   1.399       .  A
C998       H1003   1.084       .  S
C999       C1000   1.410       .  A
C999       O1004   1.372       .  S
C1000      C1001   1.403       .  A
C1001      C1002   1.400       .  A
C1001      H1005   1.084       .  S
C1002      O1006   1.373       .  S
O1004      H1008   0.992       .  S
O1006      H1007   0.992       .  S
C1009      C1010   1.402       .  A
C1009      C1014   1.406   1_565  A
C1010      C1011   1.400       .  A
C1010      H1015   1.084       .  S
C1011      C1012   1.406       .  A
C1011      O1016   1.372       .  S
C1012      C1013   1.402   1_565  A
C1013      C1014   1.404       .  A
C1013      H1017   1.084       .  S
C1014      O1018   1.374       .  S
O1016      H1020   0.992       .  S
O1018      H1019   0.992   1_545  S
C1021      C1022   1.406       .  A
C1021      C1026   1.415       .  A
C1022      C1023   1.397       .  A
C1022      H1027   1.083       .  S
C1023      C1024   1.409       .  A
C1023      O1028   1.371       .  S
C1024      C1025   1.404       .  A
C1025      C1026   1.408       .  A
C1025      H1029   1.084       .  S
C1026      O1030   1.372       .  S
O1028      H1032   0.992       .  S
O1030      H1031   0.992       .  S
C1033      C1034   1.407       .  A
C1033      C1038   1.408       .  A
C1034      C1035   1.403       .  A
C1034      H1039   1.084       .  S
C1035      C1036   1.408       .  A
C1035      O1040   1.371       .  S
C1036      C1037   1.407       .  A
C1037      C1038   1.401       .  A
C1037      H1041   1.084       .  S
C1038      O1042   1.372       .  S
O1040      H1044   0.992       .  S
O1042      H1043   0.992       .  S
C1045      C1046   1.408       .  A
C1045      C1050   1.415   1_655  A
C1046      C1047   1.407   1_655  A
C1046      H1051   1.083       .  S
C1047      C1048   1.411       .  A
C1047      O1052   1.371       .  S
C1048      C1049   1.402       .  A
C1049      C1050   1.398       .  A
C1049      H1053   1.084       .  S
C1050      O1054   1.372       .  S
O1052      H1056   0.992       .  S
O1054      H1055   0.992       .  S
C1057      C1058   1.404       .  A
C1057      C1062   1.407       .  A
C1058      C1059   1.399       .  A
C1058      H1063   1.084       .  S
C1059      C1060   1.408       .  A
C1059      O1064   1.372       .  S
C1060      C1061   1.405       .  A
C1061      C1062   1.400       .  A
C1061      H1065   1.084       .  S
C1062      O1066   1.371       .  S
O1064      H1068   0.992       .  S
O1066      H1067   0.992       .  S
C1069      C1070   1.409       .  A
C1069      C1074   1.417       .  A
C1070      C1071   1.396       .  A
C1070      H1075   1.082       .  S
C1071      C1072   1.406       .  A
C1071      O1076   1.369       .  S
C1072      C1073   1.405       .  A
C1073      C1074   1.409       .  A
C1073      H1077   1.084       .  S
C1074      O1078   1.372   1_655  S
O1076      H1080   0.992       .  S
O1078      H1079   0.992       .  S
C1081      C1082   1.405       .  A
C1081      C1086   1.414       .  A
C1082      C1083   1.401       .  A
C1082      H1087   1.083       .  S
C1083      C1084   1.409       .  A
C1083      O1088   1.372       .  S
C1084      C1085   1.399       .  A
C1085      C1086   1.399       .  A
C1085      H1089   1.084       .  S
C1086      O1090   1.372       .  S
O1088      H1092   0.992       .  S
O1090      H1091   0.992       .  S
C1093      C1094   1.405       .  A
C1093      C1098   1.408       .  A
C1094      C1095   1.402       .  A
C1094      H1099   1.084       .  S
C1095      C1096   1.407       .  A
C1095      O1100   1.372       .  S
C1096      C1097   1.401       .  A
C1097      C1098   1.400       .  A
C1097      H1101   1.082       .  S
C1098      O1102   1.372       .  S
O1100      H1104   0.992       .  S
O1102      H1103   0.992       .  S
C1105      C1106   1.404       .  A
C1105      C1110   1.409       .  A
C1106      C1107   1.406       .  A
C1106      H1111   1.084       .  S
C1107      C1108   1.414       .  A
C1107      O1112   1.372       .  S
C1108      C1109   1.407       .  A
C1109      C1110   1.398       .  A
C1109      H1113   1.083       .  S
C1110      O1114   1.372       .  S
O1112      H1116   0.992       .  S
O1114      H1115   0.992       .  S
C1117      C1118   1.403       .  A
C1117      C1122   1.410       .  A
C1118      C1119   1.400       .  A
C1118      H1123   1.084       .  S
C1119      C1120   1.413       .  A
C1119      O1124   1.372       .  S
C1120      C1121   1.403       .  A
C1121      C1122   1.399       .  A
C1121      H1125   1.083       .  S
C1122      O1126   1.372       .  S
O1124      H1128   0.992       .  S
O1126      H1127   0.992       .  S
C1129      C1130   1.403       .  A
C1129      C1134   1.410       .  A
C1130      C1131   1.404       .  A
C1130      H1135   1.084   1_554  S
C1131      C1132   1.414       .  A
C1131      O1136   1.373       .  S
C1132      C1133   1.406       .  A
C1133      C1134   1.394       .  A
C1133      H1137   1.083       .  S
C1134      O1138   1.372       .  S
O1136      H1140   0.992   1_554  S
O1138      H1139   0.992       .  S
C1141      C1142   1.400       .  A
C1141      C1146   1.413       .  A
C1142      C1143   1.395       .  A
C1142      H1147   1.084       .  S
C1143      C1144   1.413       .  A
C1143      O1148   1.371       .  S
C1144      C1145   1.400       .  A
C1145      C1146   1.399       .  A
C1145      H1149   1.084       .  S
C1146      O1150   1.372       .  S
O1148      H1152   0.992       .  S
O1150      H1151   0.992       .  S
C1153      C1154   1.400       .  A
C1153      C1158   1.406       .  A
C1154      C1155   1.401       .  A
C1154      H1159   1.082       .  S
C1155      C1156   1.413       .  A
C1155      O1160   1.373       .  S
C1156      C1157   1.401       .  A
C1157      C1158   1.392       .  A
C1157      H1161   1.084       .  S
C1158      O1162   1.368       .  S
O1160      H1164   0.992       .  S
O1162      H1163   0.992       .  S
C1165      C1166   1.404   1_554  A
C1165      C1170   1.414       .  A
C1166      C1167   1.394       .  A
C1166      H1171   1.083       .  S
C1167      C1168   1.413   1_556  A
C1167      O1172   1.371       .  S
C1168      C1169   1.405       .  A
C1169      C1170   1.406       .  A
C1169      H1173   1.083       .  S
C1170      O1174   1.373       .  S
O1172      H1176   0.992       .  S
O1174      H1175   0.992       .  S
C1177      C1178   1.399   1_565  A
C1177      C1182   1.409   1_554  A
C1178      C1179   1.393   1_545  A
C1178      H1183   1.084       .  S
C1179      C1180   1.407       .  A
C1179      O1184   1.373       .  S
C1180      C1181   1.401       .  A
C1181      C1182   1.399   1_554  A
C1181      H1185   1.084   1_554  S
C1182      O1186   1.372       .  S
O1184      H1188   0.992       .  S
O1186      H1187   0.992       .  S
C1189      C1190   1.404       .  A
C1189      C1194   1.403       .  A
C1190      C1191   1.401       .  A
C1190      H1195   1.084       .  S
C1191      C1192   1.411       .  A
C1191      O1196   1.372       .  S
C1192      C1193   1.408       .  A
C1193      C1194   1.398       .  A
C1193      H1197   1.084       .  S
C1194      O1198   1.370       .  S
O1196      H1200   0.992       .  S
O1198      H1199   0.992       .  S
C1201      C1202   1.400       .  A
C1201      C1206   1.409       .  A
C1202      C1203   1.394       .  A
C1202      H1207   1.084       .  S
C1203      C1204   1.406       .  A
C1203      O1208   1.372       .  S
C1204      C1205   1.404       .  A
C1205      C1206   1.408       .  A
C1205      H1209   1.083       .  S
C1206      O1210   1.371       .  S
O1208      H1212   0.990       .  S
O1210      H1211   0.992       .  S
C1213      C1214   1.406       .  A
C1213      C1218   1.411       .  A
C1214      C1215   1.410       .  A
C1214      H1219   1.083       .  S
C1215      C1216   1.416       .  A
C1215      O1220   1.372       .  S
C1216      C1217   1.406       .  A
C1217      C1218   1.396       .  A
C1217      H1221   1.083       .  S
C1218      O1222   1.371       .  S
O1220      H1224   0.992       .  S
O1222      H1223   0.992       .  S
C1225      C1226   1.402       .  A
C1225      C1230   1.408       .  A
C1226      C1227   1.401       .  A
C1226      H1231   1.084       .  S
C1227      C1228   1.411       .  A
C1227      O1232   1.373       .  S
C1228      C1229   1.407       .  A
C1229      C1230   1.402       .  A
C1229      H1233   1.084       .  S
C1230      O1234   1.372       .  S
O1232      H1236   0.992       .  S
O1234      H1235   0.992       .  S
C1237      C1238   1.408       .  A
C1237      C1242   1.413       .  A
C1238      C1239   1.399       .  A
C1238      H1243   1.083       .  S
C1239      C1240   1.411       .  A
C1239      O1244   1.372       .  S
C1240      C1241   1.406       .  A
C1241      C1242   1.399       .  A
C1241      H1245   1.084       .  S
C1242      O1246   1.371       .  S
O1244      H1248   0.991       .  S
O1246      H1247   0.991       .  S
C1249      C1250   1.405       .  A
C1249      C1254   1.408       .  A
C1250      C1251   1.398       .  A
C1250      H1255   1.084       .  S
C1251      C1252   1.408       .  A
C1251      O1256   1.372       .  S
C1252      C1253   1.405       .  A
C1253      C1254   1.398       .  A
C1253      H1257   1.084       .  S
C1254      O1258   1.372       .  S
O1256      H1260   0.992       .  S
O1258      H1259   0.992       .  S
C1261      C1262   1.407       .  A
C1261      C1266   1.412   1_655  A
C1262      C1263   1.403   1_655  A
C1262      H1267   1.083       .  S
C1263      C1264   1.407       .  A
C1263      O1268   1.371       .  S
C1264      C1265   1.401       .  A
C1265      C1266   1.396       .  A
C1265      H1269   1.084       .  S
C1266      O1270   1.373       .  S
O1268      H1272   0.992       .  S
O1270      H1271   0.992       .  S
C1273      C1274   1.407       .  A
C1273      C1278   1.413       .  A
C1274      C1275   1.403       .  A
C1274      H1279   1.083       .  S
C1275      C1276   1.407       .  A
C1275      O1280   1.371       .  S
C1276      C1277   1.401       .  A
C1277      C1278   1.397       .  A
C1277      H1281   1.083       .  S
C1278      O1282   1.373       .  S
O1280      H1284   0.992       .  S
O1282      H1283   0.992       .  S
C1285      C1286   1.407       .  A
C1285      C1290   1.409       .  A
C1286      C1287   1.400       .  A
C1286      H1291   1.083       .  S
C1287      C1288   1.408       .  A
C1287      O1292   1.372       .  S
C1288      C1289   1.407       .  A
C1289      C1290   1.401       .  A
C1289      H1293   1.084       .  S
C1290      O1294   1.372       .  S
O1292      H1296   0.992       .  S
O1294      H1295   0.992       .  S
C1297      C1298   1.405       .  A
C1297      C1302   1.408       .  A
C1298      C1299   1.399       .  A
C1298      H1303   1.084       .  S
C1299      C1300   1.408       .  A
C1299      O1304   1.372       .  S
C1300      C1301   1.405       .  A
C1301      C1302   1.399       .  A
C1301      H1305   1.084       .  S
C1302      O1306   1.372       .  S
O1304      H1308   0.992       .  S
O1306      H1307   0.992       .  S
C1309      C1310   1.412       .  A
C1309      C1314   1.414       .  A
C1310      C1311   1.407       .  A
C1310      H1315   1.083       .  S
C1311      C1312   1.410       .  A
C1311      O1316   1.371       .  S
C1312      C1313   1.402       .  A
C1313      C1314   1.393       .  A
C1313      H1317   1.078       .  S
C1314      O1318   1.371       .  S
O1316      H1320   0.992       .  S
O1318      H1319   0.992       .  S
C1321      C1322   1.404       .  A
C1321      C1326   1.409       .  A
C1322      C1323   1.401       .  A
C1322      H1327   1.084       .  S
C1323      C1324   1.407       .  A
C1323      O1328   1.371       .  S
C1324      C1325   1.399       .  A
C1325      C1326   1.398       .  A
C1325      H1329   1.082       .  S
C1326      O1330   1.372       .  S
O1328      H1332   0.992       .  S
O1330      H1331   0.992   1_565  S
C1333      C1334   1.407       .  A
C1333      C1338   1.409       .  A
C1334      C1335   1.404       .  A
C1334      H1339   1.083   1_655  S
C1335      C1336   1.406       .  A
C1335      O1340   1.371       .  S
C1336      C1337   1.400       .  A
C1337      C1338   1.395       .  A
C1337      H1341   1.084       .  S
C1338      O1342   1.372       .  S
O1340      H1344   0.992       .  S
O1342      H1343   0.992       .  S
C1345      C1346   1.408       .  A
C1345      C1350   1.412       .  A
C1346      C1347   1.399       .  A
C1346      H1351   1.083       .  S
C1347      C1348   1.405       .  A
C1347      O1352   1.372       .  S
C1348      C1349   1.401       .  A
C1349      C1350   1.398       .  A
C1349      H1353   1.084       .  S
C1350      O1354   1.372       .  S
O1352      H1356   0.992       .  S
O1354      H1355   0.992       .  S
C1357      C1358   1.406       .  A
C1357      C1362   1.408       .  A
C1358      C1359   1.399       .  A
C1358      H1363   1.084       .  S
C1359      C1360   1.407       .  A
C1359      O1364   1.372       .  S
C1360      C1361   1.405       .  A
C1361      C1362   1.399       .  A
C1361      H1365   1.084       .  S
C1362      O1366   1.372       .  S
O1364      H1368   0.992       .  S
O1366      H1367   0.992       .  S
C1369      C1370   1.408       .  A
C1369      C1374   1.409       .  A
C1370      C1371   1.400       .  A
C1370      H1375   1.083       .  S
C1371      C1372   1.408       .  A
C1371      O1376   1.372       .  S
C1372      C1373   1.408       .  A
C1373      C1374   1.399       .  A
C1373      H1377   1.084       .  S
C1374      O1378   1.372       .  S
O1376      H1380   0.992       .  S
O1378      H1379   0.992       .  S
C1381      C1382   1.407       .  A
C1381      C1386   1.413       .  A
C1382      C1383   1.397       .  A
C1382      H1387   1.083       .  S
C1383      C1384   1.408       .  A
C1383      O1388   1.372       .  S
C1384      C1385   1.405       .  A
C1385      C1386   1.406       .  A
C1385      H1389   1.081       .  S
C1386      O1390   1.372   1_565  S
O1388      H1392   0.992       .  S
O1390      H1391   0.992       .  S
C1393      C1394   1.406       .  A
C1393      C1398   1.407       .  A
C1394      C1395   1.400       .  A
C1394      H1399   1.084       .  S
C1395      C1396   1.410       .  A
C1395      O1400   1.373       .  S
C1396      C1397   1.408       .  A
C1397      C1398   1.400       .  A
C1397      H1401   1.083       .  S
C1398      O1402   1.372       .  S
O1400      H1404   0.992       .  S
O1402      H1403   0.992       .  S
C1405      C1406   1.411       .  A
C1405      C1410   1.412       .  A
C1406      C1407   1.404       .  A
C1406      H1411   1.083       .  S
C1407      C1408   1.408       .  A
C1407      O1412   1.371       .  S
C1408      C1409   1.403       .  A
C1409      C1410   1.396       .  A
C1409      H1413   1.081       .  S
C1410      O1414   1.373       .  S
O1412      H1416   0.992       .  S
O1414      H1415   0.992       .  S
C1417      C1418   1.403       .  A
C1417      C1422   1.408       .  A
C1418      C1419   1.400       .  A
C1418      H1423   1.084       .  S
C1419      C1420   1.411       .  A
C1419      O1424   1.372       .  S
C1420      C1421   1.403       .  A
C1421      C1422   1.395       .  A
C1421      H1425   1.084       .  S
C1422      O1426   1.372       .  S
O1424      H1428   0.992       .  S
O1426      H1427   0.992       .  S
C1429      C1430   1.408       .  A
C1429      C1434   1.413   1_565  A
C1430      C1431   1.405   1_565  A
C1430      H1435   1.083       .  S
C1431      C1432   1.409       .  A
C1431      O1436   1.372       .  S
C1432      C1433   1.403       .  A
C1433      C1434   1.400       .  A
C1433      H1437   1.084       .  S
C1434      O1438   1.373       .  S
O1436      H1440   0.992       .  S
O1438      H1439   0.992       .  S
C1441      C1442   1.408       .  A
C1441      C1446   1.409       .  A
C1442      C1443   1.402       .  A
C1442      H1447   1.084       .  S
C1443      C1444   1.411       .  A
C1443      O1448   1.372       .  S
C1444      C1445   1.411       .  A
C1445      C1446   1.402       .  A
C1445      H1449   1.083       .  S
C1446      O1450   1.371       .  S
O1448      H1452   0.992       .  S
O1450      H1451   0.992       .  S
C1453      C1454   1.408       .  A
C1453      C1458   1.414   1_655  A
C1454      C1455   1.400       .  A
C1454      H1459   1.083       .  S
C1455      C1456   1.408       .  A
C1455      O1460   1.372       .  S
C1456      C1457   1.403   1_655  A
C1457      C1458   1.402       .  A
C1457      H1461   1.084       .  S
C1458      O1462   1.372       .  S
O1460      H1464   0.992       .  S
O1462      H1463   0.992       .  S
C1465      C1466   1.408       .  A
C1465      C1470   1.406       .  A
C1466      C1467   1.408       .  A
C1466      H1471   1.083       .  S
C1467      C1468   1.408       .  A
C1467      O1472   1.371       .  S
C1468      C1469   1.400       .  A
C1469      C1470   1.394       .  A
C1469      H1473   1.078       .  S
C1470      O1474   1.373       .  S
O1472      H1476   0.992       .  S
O1474      H1475   0.992       .  S
C1477      C1478   1.406       .  A
C1477      C1482   1.409       .  A
C1478      C1479   1.401       .  A
C1478      H1483   1.083       .  S
C1479      C1480   1.409       .  A
C1479      O1484   1.371       .  S
C1480      C1481   1.405       .  A
C1481      C1482   1.397       .  A
C1481      H1485   1.084       .  S
C1482      O1486   1.372       .  S
O1484      H1488   0.992       .  S
O1486      H1487   0.992       .  S
C1489      C1490   1.405       .  A
C1489      C1494   1.411       .  A
C1490      C1491   1.408       .  A
C1490      H1495   1.083   1_554  S
C1491      C1492   1.413       .  A
C1491      O1496   1.372   1_554  S
C1492      C1493   1.403       .  A
C1493      C1494   1.396       .  A
C1493      H1497   1.084       .  S
C1494      O1498   1.373       .  S
O1496      H1500   0.992       .  S
O1498      H1499   0.992       .  S
C1501      C1502   1.403       .  A
C1501      C1506   1.410       .  A
C1502      C1503   1.399       .  A
C1502      H1507   1.084       .  S
C1503      C1504   1.405       .  A
C1503      O1508   1.369       .  S
C1504      C1505   1.403       .  A
C1505      C1506   1.403       .  A
C1505      H1509   1.082       .  S
C1506      O1510   1.372       .  S
O1508      H1512   0.992       .  S
O1510      H1511   0.992       .  S
C1513      C1514   1.409       .  A
C1513      C1518   1.411       .  A
C1514      C1515   1.402       .  A
C1514      H1519   1.083       .  S
C1515      C1516   1.406       .  A
C1515      O1520   1.372       .  S
C1516      C1517   1.401       .  A
C1517      C1518   1.397       .  A
C1517      H1521   1.081       .  S
C1518      O1522   1.373       .  S
O1520      H1524   0.992       .  S
O1522      H1523   0.992       .  S
C1525      C1526   1.408       .  A
C1525      C1530   1.409   1_554  A
C1526      C1527   1.407       .  A
C1526      H1531   1.083       .  S
C1527      C1528   1.410       .  A
C1527      O1532   1.371       .  S
C1528      C1529   1.404   1_554  A
C1529      C1530   1.395       .  A
C1529      H1533   1.084       .  S
C1530      O1534   1.373       .  S
O1532      H1536   0.992       .  S
O1534      H1535   0.992       .  S
C1537      C1538   1.404       .  A
C1537      C1542   1.409       .  A
C1538      C1539   1.397       .  A
C1538      H1543   1.084       .  S
C1539      C1540   1.411       .  A
C1539      O1544   1.372       .  S
C1540      C1541   1.405       .  A
C1541      C1542   1.402       .  A
C1541      H1545   1.084       .  S
C1542      O1546   1.372       .  S
O1544      H1548   0.992       .  S
O1546      H1547   0.992       .  S
C1549      C1550   1.405       .  A
C1549      C1554   1.408       .  A
C1550      C1551   1.398       .  A
C1550      H1555   1.082       .  S
C1551      C1552   1.409       .  A
C1551      O1556   1.373       .  S
C1552      C1553   1.408       .  A
C1553      C1554   1.399       .  A
C1553      H1557   1.083       .  S
C1554      O1558   1.372       .  S
O1556      H1560   0.992       .  S
O1558      H1559   0.992       .  S
C1561      C1562   1.407       .  A
C1561      C1566   1.409       .  A
C1562      C1563   1.403       .  A
C1562      H1567   1.084       .  S
C1563      C1564   1.406       .  A
C1563      O1568   1.371       .  S
C1564      C1565   1.402       .  A
C1565      C1566   1.396       .  A
C1565      H1569   1.084   1_455  S
C1566      O1570   1.372   1_455  S
O1568      H1572   0.992       .  S
O1570      H1571   0.992       .  S
C1573      C1574   1.400       .  A
C1573      C1578   1.407       .  A
C1574      C1575   1.397       .  A
C1574      H1579   1.083       .  S
C1575      C1576   1.415       .  A
C1575      O1580   1.373       .  S
C1576      C1577   1.409       .  A
C1577      C1578   1.403       .  A
C1577      H1581   1.083       .  S
C1578      O1582   1.371       .  S
O1580      H1584   0.992       .  S
O1582      H1583   0.992       .  S
C1585      C1586   1.410       .  A
C1585      C1590   1.412       .  A
C1586      C1587   1.402       .  A
C1586      H1591   1.083       .  S
C1587      C1588   1.406       .  A
C1587      O1592   1.372       .  S
C1588      C1589   1.401       .  A
C1589      C1590   1.398       .  A
C1589      H1593   1.078       .  S
C1590      O1594   1.373       .  S
O1592      H1596   0.992       .  S
O1594      H1595   0.992       .  S
C1597      C1598   1.404       .  A
C1597      C1602   1.411       .  A
C1598      C1599   1.398       .  A
C1598      H1603   1.084       .  S
C1599      C1600   1.409   1_655  A
C1599      O1604   1.372       .  S
C1600      C1601   1.402       .  A
C1601      C1602   1.399   1_455  A
C1601      H1605   1.084       .  S
C1602      O1606   1.372       .  S
O1604      H1608   0.992       .  S
O1606      H1607   0.992       .  S
C1609      C1610   1.408       .  A
C1609      C1614   1.405       .  A
C1610      C1611   1.404       .  A
C1610      H1615   1.083       .  S
C1611      C1612   1.405       .  A
C1611      O1616   1.371       .  S
C1612      C1613   1.401       .  A
C1613      C1614   1.392       .  A
C1613      H1617   1.081       .  S
C1614      O1618   1.372       .  S
O1616      H1620   0.992       .  S
O1618      H1619   0.992       .  S
C1621      C1622   1.401       .  A
C1621      C1626   1.414       .  A
C1622      C1623   1.395       .  A
C1622      H1627   1.083       .  S
C1623      C1624   1.414       .  A
C1623      O1628   1.371       .  S
C1624      C1625   1.403       .  A
C1625      C1626   1.402       .  A
C1625      H1629   1.084       .  S
C1626      O1630   1.373       .  S
O1628      H1632   0.992       .  S
O1630      H1631   0.992       .  S
C1633      C1634   1.405       .  A
C1633      C1638   1.413       .  A
C1634      C1635   1.397       .  A
C1634      H1639   1.083       .  S
C1635      C1636   1.406       .  A
C1635      O1640   1.372       .  S
C1636      C1637   1.400       .  A
C1637      C1638   1.399       .  A
C1637      H1641   1.084       .  S
C1638      O1642   1.373       .  S
O1640      H1644   0.992       .  S
O1642      H1643   0.992       .  S
C1645      C1646   1.403   1_565  A
C1645      C1650   1.412       .  A
C1646      C1647   1.393       .  A
C1646      H1651   1.084       .  S
C1647      C1648   1.405       .  A
C1647      O1652   1.371       .  S
C1648      C1649   1.402       .  A
C1649      C1650   1.405   1_545  A
C1649      H1653   1.084       .  S
C1650      O1654   1.372       .  S
O1652      H1656   0.992       .  S
O1654      H1655   0.992       .  S
C1657      C1658   1.404       .  A
C1657      C1662   1.407       .  A
C1658      C1659   1.396       .  A
C1658      H1663   1.084       .  S
C1659      C1660   1.407       .  A
C1659      O1664   1.372       .  S
C1660      C1661   1.405       .  A
C1661      C1662   1.399       .  A
C1661      H1665   1.084       .  S
C1662      O1666   1.372       .  S
O1664      H1668   0.992       .  S
O1666      H1667   0.992       .  S
C1669      C1670   1.400       .  A
C1669      C1674   1.409       .  A
C1670      C1671   1.393       .  A
C1670      H1675   1.084       .  S
C1671      C1672   1.406       .  A
C1671      O1676   1.372       .  S
C1672      C1673   1.403       .  A
C1673      C1674   1.406       .  A
C1673      H1677   1.084       .  S
C1674      O1678   1.371       .  S
O1676      H1680   0.990       .  S
O1678      H1679   0.992       .  S
C1681      C1682   1.406   1_655  A
C1681      C1686   1.416       .  A
C1682      C1683   1.398       .  A
C1682      H1687   1.083       .  S
C1683      C1684   1.409   1_455  A
C1683      O1688   1.372       .  S
C1684      C1685   1.401       .  A
C1685      C1686   1.399       .  A
C1685      H1689   1.084       .  S
C1686      O1690   1.372       .  S
O1688      H1692   0.992       .  S
O1690      H1691   0.992       .  S
C1693      C1694   1.406       .  A
C1693      C1698   1.412       .  A
C1694      C1695   1.399       .  A
C1694      H1699   1.083   1_565  S
C1695      C1696   1.407       .  A
C1695      O1700   1.369       .  S
C1696      C1697   1.402       .  A
C1697      C1698   1.398       .  A
C1697      H1701   1.082       .  S
C1698      O1702   1.373       .  S
O1700      H1704   0.992       .  S
O1702      H1703   0.992       .  S
C1705      C1706   1.405       .  A
C1705      C1710   1.408       .  A
C1706      C1707   1.397       .  A
C1706      H1711   1.084       .  S
C1707      C1708   1.407       .  A
C1707      O1712   1.373       .  S
C1708      C1709   1.405       .  A
C1709      C1710   1.398       .  A
C1709      H1713   1.084       .  S
C1710      O1714   1.372       .  S
O1712      H1716   0.992       .  S
O1714      H1715   0.992       .  S
C1717      C1718   1.403       .  A
C1717      C1722   1.409       .  A
C1718      C1719   1.398       .  A
C1718      H1723   1.084       .  S
C1719      C1720   1.408       .  A
C1719      O1724   1.372       .  S
C1720      C1721   1.402       .  A
C1721      C1722   1.394       .  A
C1721      H1725   1.084       .  S
C1722      O1726   1.372       .  S
O1724      H1728   0.992       .  S
O1726      H1727   0.992       .  S
