geometry optimzed in LAMMPS
_audit_creation_date              2020-11-30 
_audit_creation_method            'lammps2cif' 
_symmetry_space_group_name_H-M    'P1' 
_symmetry_Int_Tables_number       1 
_symmetry_cell_setting            triclinic 
loop_ 
_symmetry_equiv_pos_as_xyz 
  x,y,z 
_cell_length_a                    64.66888924 
_cell_length_b                    65.69733798831498 
_cell_length_c                    22.501009766870332 
_cell_angle_alpha                 93.69556988653744 
_cell_angle_beta                  85.46878333788072 
_cell_angle_gamma                 128.79185540157812 
loop_ 
_atom_site_label 
_atom_site_type_symbol 
_atom_site_fract_x 
_atom_site_fract_y 
_atom_site_fract_z 
_atom_site_charge 
C1          C  0.33981789  0.16305917  0.97379312     0.30400
C2          C  0.33913857  0.16362945  0.31998136     0.30400
C3          C  0.36092086  0.16353916  0.92730285    -0.05800
C4          C  0.31595387  0.14087179  0.93035769    -0.06600
C5          C  0.34428221  0.18616369  0.93560515    -0.06500
C6          C  0.36097278  0.16556571  0.35722553    -0.05900
C7          C  0.31589191  0.14079623  0.36540945    -0.06600
C8          C  0.34213242  0.18606286  0.36578687    -0.06500
C9          C  0.37673443  0.15910975  0.33686257    -0.31900
N10         N  0.38556511  0.15497982  0.38356288     0.14600
C11         C  0.37685206  0.15720103  0.93835051    -0.31900
H12         H  0.37989558  0.15368236  0.98174375     0.16500
C13         C  0.29062877  0.11851948  0.35453033    -0.30900
N14         N  0.27569988  0.10926322  0.89504923     0.13300
C15         C  0.29014659  0.11956376  0.94475634    -0.30900
C16         C  0.34909039  0.21019488  0.35341846    -0.31200
N17         N  0.35620667  0.22498804  0.90808381     0.13800
H18         H  0.35203199  0.21737076  0.30909897     0.16500
C19         C  0.35129586  0.21015504  0.95506151    -0.31200
H20         H  0.35371876  0.21676516  0.00087913     0.16500
H21         H  0.28183404  0.11306312  0.98936150     0.16500
H22         H  0.37991791  0.15553980  0.29083639     0.16500
H23         H  0.28169913  0.11239218  0.31182277     0.16500
C24         C  0.33828131  0.16174006  0.22390713     0.30400
C25         C  0.33869824  0.16191727  0.06954219     0.30400
C26         C  0.34074152  0.14290088  0.17679185    -0.05800
C27         C  0.31427788  0.15542709  0.18524861    -0.06600
C28         C  0.35997944  0.18595788  0.18085141    -0.06500
C29         C  0.34053040  0.14284878  0.10785923    -0.05900
C30         C  0.31475322  0.15590888  0.11639636    -0.06600
C31         C  0.36037621  0.18601610  0.11217981    -0.06500
C32         C  0.34584304  0.12636834  0.08732230    -0.31900
N33         N  0.35027853  0.11756592  0.13364194     0.14600
C34         C  0.34707852  0.12690008  0.18641659    -0.31900
H35         H  0.34990544  0.12275439  0.22930406     0.16500
C36         C  0.28885508  0.14339999  0.10405934    -0.30900
N37         N  0.27288335  0.13466043  0.15455001     0.13300
C38         C  0.28770581  0.14178711  0.20276803    -0.30900
C39         C  0.38178024  0.21078420  0.09684857    -0.31200
N40         N  0.39305440  0.22529443  0.14702699     0.13800
H41         H  0.38722760  0.21854546  0.05235528     0.16500
C42         C  0.38077763  0.21075322  0.19656650    -0.31200
H43         H  0.38534545  0.21842101  0.24178051     0.16500
H44         H  0.27938766  0.13591478  0.24770419     0.16500
H45         H  0.34725233  0.12160468  0.04110469     0.16500
H46         H  0.28173837  0.13898402  0.05997848     0.16500
O47         O  0.06042662  0.48907364  0.27685388    -0.74900
O48         O  0.03583570  0.46603475  0.35754705    -0.54700
C49         C  0.05181143  0.47075508  0.31341713     0.78800
O50         O  0.07288964  0.10228185  0.32337059    -0.59500
O51         O  0.53078274  0.09305489  0.27112756    -0.52600
C52         C  0.06131282  0.10842435  0.29481517     0.70800
O53         O  0.09332663  0.05477878  0.38720414    -0.74100
O54         O  0.06879039  0.51070938  0.40745102    -0.54700
C55         C  0.09125434  0.03491531  0.40188483     0.76800
O56         O  0.06668261  0.55085390  0.19868789    -0.59200
O57         O  0.54248399  0.07436225  0.21903243    -0.52400
C58         C  0.54908556  0.06138257  0.19353917     0.73400
Zr59       Zr  0.03918388  0.50673437  0.24129852     2.54700
O60         O  0.08772515  0.03613183  0.23860514    -0.79800
O61         O  0.52877056  0.46790724  0.21021695    -0.93200
Zr62       Zr  0.06437086  0.06508275  0.36437293     2.64700
O63         O  0.10292791  0.09158136  0.29626700    -0.98200
O64         O  0.08522718  0.09436401  0.44966153    -0.80200
O65         O  0.05426574  0.02351543  0.34268123    -0.83600
O66         O  0.03662109  0.04056904  0.29030900    -2.18300
O67         O  0.42979101  0.48192013  0.32973600    -0.67000
O68         O  0.44963978  0.51957533  0.28150030    -0.51600
C69         C  0.42781279  0.49798717  0.30677990     0.71800
O70         O  0.45297639  0.98916932  0.43133299    -0.59900
O71         O  0.97438298  0.46176883  0.42122688    -0.51900
C72         C  0.45207547  0.46919543  0.93322757     0.73600
O73         O  0.47129111  0.05863626  0.40706538    -0.71300
O74         O  0.47846139  0.06592917  0.30792672    -0.50000
C75         C  0.47005399  0.06787813  0.35960552     0.75000
O76         O  0.44606444  0.43036671  0.35176907    -0.66600
O77         O  0.47854435  0.43919342  0.40550236    -0.53800
C78         C  0.45463159  0.42193834  0.38372664     0.73300
Zr79       Zr  0.46249286  0.47401072  0.32052062     2.77500
O80         O  0.41423694  0.44708852  0.35204678    -0.97400
O81         O  0.44471728  0.43277630  0.27337744    -0.78200
Zr82       Zr  0.48795106  0.03496903  0.43216076     2.70100
O83         O  0.45383952  0.52589987  0.46947962    -0.79400
O84         O  0.03005842  0.08302650  0.42343800    -0.98500
Zr85       Zr  0.01960853  0.48919500  0.39226908     2.21500
Zr86       Zr  0.49798950  0.04560172  0.27388692     2.11100
O87         O  0.47515311  0.51602085  0.34979857    -2.47200
O88         O  0.49352373  0.50101471  0.38465636    -0.79200
O89         O  0.49650133  0.50422500  0.25143648    -0.71400
O90         O  0.03099779  0.03613585  0.43438238    -2.32400
O91         O  0.50166320  0.47647921  0.30923340    -2.28600
O92         O  0.02623264  0.06440107  0.35957209    -0.73200
H93         H  0.02597802  0.02975450  0.32086621     0.78800
H94         H  0.03890600  0.04688150  0.46873029     0.79900
H95         H  0.46313384  0.51865274  0.36724802     0.82100
H96         H  0.49609461  0.45924615  0.30046993     0.79700
H97         H  0.09149324  0.11152806  0.43613036     0.42800
H98         H  0.02183638  0.09129670  0.43509457     0.41700
H99         H  0.43871716  0.50832128  0.45558862     0.41400
H100        H  0.40130474  0.43736498  0.32047787     0.39300
H101        H  0.42649964  0.42436402  0.26272943     0.42500
H102        H  0.51921691  0.45435686  0.24049071     0.37300
H103        H  0.09481086  0.03819392  0.27775790     0.43400
H104        H  0.11674157  0.10662487  0.32078223     0.39800
H105        H  0.40917486  0.43213080  0.37410526     0.44700
H106        H  0.54459203  0.46908705  0.19878535     0.43400
H107        H  0.10942075  0.08157378  0.28590813     0.43600
H108        H  0.54143851  0.08213276  0.95630190     0.43900
O109        O  0.98494164  0.41628650  0.02596374    -0.74900
O110        O  0.01530265  0.44081717  0.09384715    -0.53900
C111        C  0.00409381  0.42196900  0.05493258     0.78800
O112        O  0.02081320  0.05817681  0.05211202    -0.59500
O113        O  0.47998279  0.04361438  0.04144976    -0.52600
C114        C  0.00265157  0.06070837  0.04969932     0.70800
O115        O  0.06410644  0.03305752  0.09257908    -0.74100
O116        O  0.05324566  0.99984930  0.14611981    -0.54700
C117        C  0.07118473  0.02203709  0.12000327     0.76800
O118        O  0.93546923  0.42590068  0.47565293    -0.59200
O119        O  0.41243420  0.95119499  0.46833715    -0.52400
C120        C  0.42627335  0.94582897  0.44215539     0.73400
Zr121      Zr  0.97125487  0.44199796  0.00261637     2.54700
O122        O  0.02880122  0.98164224  0.48425648    -0.79800
O123        O  0.49735299  0.42904752  0.47392992    -0.93200
Zr124      Zr  0.02255158  0.02173489  0.05705925     2.64700
O125        O  0.05860262  0.02819394  0.99020474    -0.98200
O126        O  0.05205931  0.06895219  0.05330017    -0.80200
O127        O  0.01315384  0.98035559  0.05895665    -0.83600
O128        O  0.98510720  0.98971870  0.00541880    -2.18300
O129        O  0.39144795  0.41936082  0.09314041    -0.67000
O130        O  0.39885284  0.45448280  0.05188053    -0.51600
C131        C  0.38426904  0.43048257  0.06742537     0.71800
O132        O  0.50867564  0.03838192  0.16015334    -0.59900
O133        O  0.02529358  0.51059305  0.15960629    -0.51900
C134        C  0.52875760  0.53539660  0.17430580     0.73600
O135        O  0.43424151  0.01696599  0.15998971    -0.71300
O136        O  0.42767871  0.01023568  0.06219598    -0.50000
C137        C  0.42546864  0.01900116  0.11254212     0.75000
O138        O  0.43357816  0.40187702  0.18815510    -0.66600
O139        O  0.47696043  0.42633663  0.20888153    -0.53800
C140        C  0.45337707  0.40393463  0.20561876     0.73300
Zr141      Zr  0.42642131  0.43205266  0.15335488     2.77500
O142        O  0.38848142  0.41366559  0.22657891    -0.97400
O143        O  0.39501859  0.38598293  0.12348106    -0.78200
Zr144      Zr  0.46421506  0.00541029  0.18018137     2.70100
O145        O  0.42137657  0.46424901  0.23089043    -0.79400
O146        O  0.98294488  0.04930095  0.19415049    -0.98500
Zr147      Zr  0.00005290  0.46439669  0.14623888     2.21500
Zr148      Zr  0.44892116  0.99031989  0.03658190     2.11100
O149        O  0.42867772  0.47052427  0.14099900    -2.47200
O150        O  0.46407562  0.46685922  0.19995494    -0.79200
O151        O  0.43881527  0.44738451  0.05631515    -0.71400
O152        O  0.99013830  0.99207834  0.12581437    -2.32400
O153        O  0.46316215  0.43574095  0.10888817    -2.28600
O154        O  0.98344740  0.01482772  0.08976830    -0.73200
H155        H  0.98844574  0.99813301  0.97125264     0.78800
H156        H  0.97704907  0.97810748  0.10287940     0.79900
H157        H  0.41268564  0.46894470  0.14616746     0.82100
H158        H  0.46039141  0.41981017  0.10919357     0.79700
H159        H  0.06901430  0.07449968  0.03419212     0.42800
H160        H  0.98222586  0.05252249  0.15278597     0.41700
H161        H  0.42713197  0.45547722  0.24784968     0.41400
H162        H  0.37568300  0.41445702  0.20778383     0.39300
H163        H  0.37670757  0.37909167  0.13611804     0.42500
H164        H  0.48494171  0.41267425  0.45170798     0.37300
H165        H  0.03421032  0.97048834  0.48175370     0.43400
H166        H  0.07476200  0.04668828  0.99206400     0.39800
H167        H  0.37949611  0.39480370  0.22860025     0.44700
H168        H  0.51321001  0.44015794  0.44679022     0.43400
H169        H  0.06407943  0.01793693  0.00159489     0.43600
H170        H  0.49623508  0.06340585  0.20078917     0.43900
C171        C  0.15006760  0.34136476  0.20820278     0.30400
C172        C  0.14883992  0.33949786  0.36240132     0.30400
C173        C  0.13250790  0.34527654  0.25603099    -0.05800
C174        C  0.14336934  0.31812914  0.24632115    -0.06600
C175        C  0.17694557  0.36172467  0.25051969    -0.06500
C176        C  0.13125267  0.34356954  0.32436306    -0.05900
C177        C  0.14250640  0.31678141  0.31510932    -0.06600
C178        C  0.17597886  0.36088492  0.31971181    -0.06500
C179        C  0.11747039  0.35227920  0.34509851    -0.31900
N180        N  0.11294541  0.36137029  0.29983847     0.14600
C181        C  0.12259088  0.35819797  0.24762514    -0.31900
H182        H  0.12504864  0.36749643  0.20723596     0.16500
C183        C  0.14552176  0.29838847  0.32349261    -0.30900
N184        N  0.14864045  0.28987351  0.26984964     0.13300
C185        C  0.14857184  0.30212563  0.22469791    -0.30900
C186        C  0.20269616  0.37731881  0.33452345    -0.31200
N187        N  0.21984774  0.38777303  0.28535230     0.13800
H188        H  0.20922714  0.38055048  0.37918332     0.16500
C189        C  0.20471102  0.37864891  0.23586088    -0.31200
H190        H  0.21341271  0.38350824  0.19102312     0.16500
H191        H  0.15148715  0.29888425  0.17806763     0.16500
H192        H  0.11208864  0.35310549  0.39069851     0.16500
H193        H  0.14558067  0.29160686  0.36601937     0.16500
C194        C  0.14571993  0.33652205  0.45816200     0.30400
C195        C  0.14487081  0.33636017  0.61279860     0.30400
C196        C  0.14374881  0.35538628  0.50492256    -0.05800
C197        C  0.12387859  0.31019148  0.50011753    -0.06600
C198        C  0.16837951  0.34199131  0.49745336    -0.06500
C199        C  0.14183839  0.35419958  0.57338605    -0.05900
C200        C  0.12341828  0.31007754  0.56944714    -0.06600
C201        C  0.16824455  0.34228612  0.56627000    -0.06500
C202        C  0.13190508  0.36705832  0.59095424    -0.31900
N203        N  0.13231384  0.37931084  0.54445221     0.14600
C204        C  0.14018542  0.37321636  0.49359061    -0.31900
H205        H  0.14172653  0.38034315  0.45052379     0.16500
C206        C  0.10727219  0.28326834  0.58213009    -0.30900
N207        N  0.09888716  0.26752952  0.53184199     0.13300
C208        C  0.10875706  0.28351297  0.48347817    -0.30900
C209        C  0.19061379  0.34607391  0.57774739    -0.31200
N210        N  0.20331500  0.34795427  0.52537919     0.13800
H211        H  0.19767925  0.34785692  0.62122179     0.16500
C212        C  0.19016681  0.34473265  0.47781161    -0.31200
H213        H  0.19685589  0.34542875  0.43185944     0.16500
H214        H  0.10663801  0.27641815  0.43786087     0.16500
H215        H  0.12089482  0.36415511  0.63199748     0.16500
H216        H  0.10307472  0.27573026  0.62610587     0.16500
C217        C  0.01381456  0.09073041  0.05191021     0.01700
C218        C  0.03897521  0.11113304  0.07649862     0.04500
C219        C  0.05350551  0.13864104  0.06872390    -0.11600
C220        C  0.04242384  0.15127331  0.53701012     0.23800
C221        C  0.01674292  0.13163657  0.51404945    -0.12100
C222        C  0.00210718  0.10386698  0.52169206     0.05200
C223        C  0.05749245  0.18180869  0.53372768     0.27600
C224        C  0.04535028  0.19307818  0.55741608    -0.12800
C225        C  0.05817734  0.22050641  0.55308256     0.05700
C226        C  0.08479182  0.23877407  0.53062154    -0.08800
C227        C  0.09770244  0.22823491  0.50997532     0.06500
C228        C  0.08430406  0.20048494  0.50942147    -0.13100
Br229      Br  0.00248217  0.14220908  0.46462055    -0.05200
Br230      Br  0.05130155  0.10312027  0.13639737     0.00400
Br231      Br  0.04619515  0.23430302  0.08800251     0.00900
Br232      Br  0.10369623  0.18903558  0.47322842    -0.03500
Br233      Br  0.46068668  0.07825056  0.52553054     0.01000
Br234      Br  0.08794447  0.16289103  0.10213087    -0.02800
Br235      Br  0.01674674  0.17164893  0.11263419    -0.03700
Br236      Br  0.13479373  0.25263013  0.48516765     0.00300
C237        C  0.35728248  0.41475451  0.05504724     0.01700
C238        C  0.34912425  0.40007077  0.52113335     0.04500
C239        C  0.32327299  0.38773329  0.50692617    -0.11600
C240        C  0.30966261  0.39604595  0.53635767     0.23800
C241        C  0.31574129  0.40586319  0.07745590    -0.12100
C242        C  0.34170943  0.41888583  0.09116945     0.05200
C243        C  0.28257512  0.38247691  0.52504329     0.27600
C244        C  0.27524227  0.39613184  0.50041457    -0.12800
C245        C  0.24865822  0.38475558  0.50236764     0.05700
C246        C  0.22996732  0.35884049  0.52105055    -0.08800
C247        C  0.23720542  0.34461828  0.54139204     0.06500
C248        C  0.26379161  0.35711857  0.54741969    -0.13100
Br249      Br  0.29414914  0.41266022  0.12428770    -0.05200
Br250      Br  0.36820193  0.38860302  0.48418794     0.00400
Br251      Br  0.23820452  0.40582734  0.48817532     0.00900
Br252      Br  0.26478541  0.33045920  0.06173595    -0.03500
Br253      Br  0.35652175  0.44247128  0.15895806     0.01000
Br254      Br  0.30656808  0.35939089  0.44841545    -0.02800
Br255      Br  0.30116417  0.43173590  0.47333072    -0.03700
Br256      Br  0.21043203  0.30862447  0.56299078     0.00300
C257        C  0.01374912  0.40622013  0.03974461     0.01700
C258        C  0.04021776  0.41862851  0.02184970     0.04500
C259        C  0.08459506  0.44593881  0.54114728    -0.11600
C260        C  0.07571695  0.42075287  0.55487490     0.23800
C261        C  0.00601635  0.36426523  0.02569984    -0.12100
C262        C  0.99631679  0.37865600  0.03693798     0.05200
C263        C  0.09354436  0.41319578  0.54814780     0.27600
C264        C  0.08627656  0.39201940  0.50948242    -0.12800
C265        C  0.09714345  0.37942710  0.51368177     0.05700
C266        C  0.11967890  0.39108401  0.54618963    -0.08800
C267        C  0.12902561  0.41353779  0.58151335     0.06500
C268        C  0.06375838  0.37582662  0.08295836    -0.13100
Br269      Br  0.98091266  0.32639847  0.02384109    -0.05200
Br270      Br  0.06060858  0.45273040  0.99431707     0.00400
Br271      Br  0.07813181  0.34388262  0.48409995     0.00900
Br272      Br  0.06568016  0.40029575  0.14009504    -0.03500
Br273      Br  0.45652365  0.36153169  0.05924155     0.01000
Br274      Br  0.12118213  0.47319272  0.51845161    -0.02800
Br275      Br  0.06036489  0.37846203  0.45197055    -0.03700
Br276      Br  0.11083118  0.39228106  0.13837475     0.00300
C277        C  0.07768313  0.13575464  0.28232228     0.01700
C278        C  0.07414063  0.15168623  0.31799322     0.04500
C279        C  0.09079821  0.17828938  0.30853684    -0.11600
C280        C  0.11133696  0.18874895  0.26381203     0.23800
C281        C  0.11711279  0.17351348  0.23320450    -0.12100
C282        C  0.10025760  0.14680286  0.24298483     0.05200
C283        C  0.12491156  0.21525635  0.24695834     0.27600
C284        C  0.10897690  0.22092549  0.22668868    -0.12800
C285        C  0.11608157  0.24525248  0.24018816     0.05700
C286        C  0.14157203  0.26509500  0.25985276    -0.08800
C287        C  0.15950108  0.26069769  0.26947601     0.06500
C288        C  0.15033088  0.23509000  0.26813981    -0.13100
Br289      Br  0.14735693  0.18889926  0.17690881    -0.05200
Br290      Br  0.04834583  0.13788323  0.38318017     0.00400
Br291      Br  0.08926794  0.24999736  0.24400445     0.00900
Br292      Br  0.17002332  0.22710932  0.30683415    -0.03500
Br293      Br  0.10912138  0.12612031  0.20373550     0.01000
Br294      Br  0.08423241  0.20009438  0.35402758    -0.02800
Br295      Br  0.07378256  0.19389538  0.19895738    -0.03700
Br296      Br  0.19527419  0.28935521  0.28927717     0.00300
C297        C  0.39769449  0.48683292  0.30903874     0.01700
C298        C  0.38621173  0.49499252  0.27668646     0.04500
C299        C  0.35780845  0.47842521  0.26851236    -0.11600
C300        C  0.33907720  0.45355337  0.29642320     0.23800
C301        C  0.35067732  0.44736111  0.33478122    -0.12100
C302        C  0.37838907  0.46472775  0.34501991     0.05200
C303        C  0.30788433  0.43606656  0.29233475     0.27600
C304        C  0.29377997  0.44553906  0.31354758    -0.12800
C305        C  0.26542583  0.43011146  0.30975361     0.05700
C306        C  0.24940842  0.40413125  0.28647976    -0.08800
C307        C  0.26293225  0.39403230  0.26805269     0.06500
C308        C  0.29134440  0.40937243  0.27089491    -0.13100
Br309      Br  0.32934254  0.41504776  0.37606194    -0.05200
Br310      Br  0.40649007  0.53161472  0.27047285     0.00400
Br311      Br  0.24810658  0.44475753  0.33589946     0.00900
Br312      Br  0.30657678  0.39254183  0.24389667    -0.03500
Br313      Br  0.38737267  0.46368276  0.42329778     0.01000
Br314      Br  0.34501465  0.48883674  0.21369368    -0.02800
Br315      Br  0.31287917  0.47920433  0.35359828    -0.03700
Br316      Br  0.24185575  0.35833922  0.23952941     0.00300
C317        C  0.10189608  0.37475781  0.30645957     0.01700
C318        C  0.11622019  0.39983084  0.33268736     0.04500
C319        C  0.10560206  0.41323675  0.33684513    -0.11600
C320        C  0.08121790  0.40244953  0.31091306     0.23800
C321        C  0.06664343  0.37654222  0.28730171    -0.12100
C322        C  0.07678906  0.36282370  0.28571269     0.05200
C323        C  0.07240163  0.41893144  0.30554554     0.27600
C324        C  0.04726745  0.41104732  0.32875236    -0.12800
C325        C  0.03981800  0.42662734  0.32107308     0.05700
C326        C  0.05866014  0.45270759  0.30289520    -0.08800
C327        C  0.08353026  0.46078418  0.27837760     0.06500
C328        C  0.08960988  0.44340066  0.27625917    -0.13100
Br329      Br  0.03276549  0.35854002  0.25654108    -0.05200
Br330      Br  0.15106864  0.41615321  0.35993494     0.00400
Br331      Br  0.00250672  0.41047781  0.32934871     0.00900
Br332      Br  0.12178985  0.45363071  0.23287112    -0.03500
Br333      Br  0.05645255  0.32726272  0.25518949     0.01000
Br334      Br  0.12405213  0.44562236  0.38153636    -0.02800
Br335      Br  0.02221256  0.38056188  0.37639995    -0.03700
Br336      Br  0.11101915  0.49676235  0.25709114     0.00300
C337        C  0.35935859  0.10234236  0.12710247     0.01700
C338        C  0.38440740  0.11294136  0.09945182     0.04500
C339        C  0.39329507  0.09799874  0.09261373    -0.11600
C340        C  0.37775437  0.07259588  0.11716635     0.23800
C341        C  0.35308886  0.06280848  0.14728067    -0.12100
C342        C  0.34367258  0.07722572  0.15036734     0.05200
C343        C  0.38876809  0.05794225  0.11715926     0.27600
C344        C  0.37714262  0.03391665  0.08594487    -0.12800
C345        C  0.38902969  0.02150248  0.08397633     0.05700
C346        C  0.41261072  0.03240299  0.11437874    -0.08800
C347        C  0.42466695  0.05741796  0.14208453     0.06500
C348        C  0.41210429  0.06896711  0.14675797    -0.13100
Br349      Br  0.33278483  0.03112400  0.19066458    -0.05200
Br350      Br  0.40778808  0.14918844  0.07786395     0.00400
Br351      Br  0.37319239  0.99039194  0.03534834     0.00900
Br352      Br  0.42692038  0.10017017  0.19595513    -0.03500
Br353      Br  0.30935444  0.06307675  0.18819692     0.01000
Br354      Br  0.42794935  0.11390964  0.05381894    -0.02800
Br355      Br  0.34480610  0.01784797  0.04499982    -0.03700
Br356      Br  0.45961578  0.07861458  0.17020484     0.00300
C357        C  0.40834734  0.25279774  0.15018972     0.01700
C358        C  0.39681586  0.26386218  0.13518114     0.04500
C359        C  0.41024939  0.29027776  0.14569393    -0.11600
C360        C  0.43080975  0.30413424  0.18647856     0.23800
C361        C  0.44197931  0.29241640  0.20337158    -0.12100
C362        C  0.43219529  0.26777617  0.17932304     0.05200
C363        C  0.43859415  0.32970307  0.21096112     0.27600
C364        C  0.46436384  0.35301524  0.20142171    -0.12800
C365        C  0.46992839  0.37741678  0.20864548     0.05700
C366        C  0.44878959  0.37887375  0.21701561    -0.08800
C367        C  0.42255852  0.35476532  0.22637132     0.06500
C368        C  0.41850109  0.33123734  0.23162913    -0.13100
Br369      Br  0.46823891  0.30700585  0.26246448    -0.05200
Br370      Br  0.36047544  0.24247245  0.11135672     0.00400
Br371      Br  0.50673157  0.40738741  0.19658132     0.00900
Br372      Br  0.38378510  0.29960365  0.25642323    -0.03500
Br373      Br  0.45010760  0.25334593  0.18777967     0.01000
Br374      Br  0.39830052  0.30583707  0.10610243    -0.02800
Br375      Br  0.49146214  0.35189170  0.16770986    -0.03700
Br376      Br  0.39070135  0.35059796  0.21707058     0.00300
C377        C  0.24416569  0.11696300  0.15448052     0.01700
C378        C  0.22913749  0.12363386  0.18430046     0.04500
C379        C  0.20133496  0.10742763  0.17880302    -0.11600
C380        C  0.18839054  0.08512508  0.13991738     0.23800
C381        C  0.20379420  0.07843672  0.11060219    -0.12100
C382        C  0.23100782  0.09340188  0.12110247     0.05200
C383        C  0.15880254  0.06853453  0.13185803     0.27600
C384        C  0.14129536  0.04214480  0.14883016    -0.12800
C385        C  0.11335748  0.02652120  0.14275082     0.05700
C386        C  0.10166793  0.03742986  0.12290998    -0.08800
C387        C  0.12002409  0.06472593  0.10854249     0.06500
C388        C  0.14788558  0.07946885  0.11029221    -0.13100
Br389      Br  0.18860854  0.04920708  0.05453025    -0.05200
Br390      Br  0.24685709  0.15529571  0.23210116     0.00400
Br391      Br  0.08839081  0.48215273  0.12022240     0.00900
Br392      Br  0.17123564  0.11569612  0.08448758    -0.03500
Br393      Br  0.25001261  0.08043478  0.09443732     0.01000
Br394      Br  0.18131420  0.11610957  0.22577679    -0.02800
Br395      Br  0.15608563  0.02790875  0.18382323    -0.03700
Br396      Br  0.10905800  0.08508223  0.09314405     0.00300
C397        C  0.45831181  0.08167356  0.36392228     0.01700
C398        C  0.47062515  0.10520991  0.33279114     0.04500
C399        C  0.45985443  0.11843481  0.33787933    -0.11600
C400        C  0.43649343  0.10830788  0.37347067     0.23800
C401        C  0.42386328  0.08468981  0.40330538    -0.12100
C402        C  0.43387888  0.07083958  0.39614512     0.05200
C403        C  0.42362859  0.12083402  0.37462174     0.27600
C404        C  0.43723637  0.14407618  0.90372579    -0.12800
C405        C  0.42448057  0.15537306  0.90668041     0.05700
C406        C  0.39850839  0.14362345  0.37879536    -0.08800
C407        C  0.38516845  0.11797999  0.35645871     0.06500
C408        C  0.39828384  0.10718835  0.35073474    -0.13100
Br409      Br  0.39183419  0.07051030  0.45221605    -0.05200
Br410      Br  0.50112266  0.11915546  0.27852820     0.00400
Br411      Br  0.44105550  0.18940818  0.94375742     0.00900
Br412      Br  0.38077847  0.07354295  0.31075323    -0.03500
Br413      Br  0.41651252  0.53396740  0.42692671     0.01000
Br414      Br  0.47666955  0.14997322  0.29327018    -0.02800
Br415      Br  0.47090151  0.16372622  0.93932821    -0.03700
Br416      Br  0.34815998  0.09688247  0.33893046     0.00300
C417        C  0.36528415  0.25221079  0.40740421     0.01700
C418        C  0.35058106  0.25925382  0.90327261     0.04500
C419        C  0.36363586  0.28758519  0.44272612    -0.11600
C420        C  0.38854169  0.30651314  0.41305455     0.23800
C421        C  0.40271666  0.29817962  0.38642796    -0.12100
C422        C  0.39111549  0.27138299  0.38292743     0.05200
C423        C  0.40155767  0.33545380  0.41324726     0.27600
C424        C  0.39262387  0.34585327  0.38016939    -0.12800
C425        C  0.40877276  0.37353784  0.37218644     0.05700
C426        C  0.43433603  0.39176746  0.39836637    -0.08800
C427        C  0.43726888  0.38026083  0.44481483     0.06500
C428        C  0.42368071  0.35318173  0.44698300    -0.13100
Br429      Br  0.43893956  0.32405861  0.35766941    -0.05200
Br430      Br  0.31315148  0.23170010  0.89543148     0.00400
Br431      Br  0.39128627  0.38463491  0.33776497     0.00900
Br432      Br  0.38485513  0.33408389  0.02034645    -0.03500
Br433      Br  0.41129645  0.26083462  0.34843580     0.01000
Br434      Br  0.34703019  0.29874724  0.49435040    -0.02800
Br435      Br  0.35700171  0.32217701  0.35157979    -0.03700
Br436      Br  0.42994610  0.39495361  0.02065382     0.00300
C437        C  0.11701497  0.03980623  0.41094372     0.01700
C438        C  0.14125105  0.06210310  0.38484107     0.04500
C439        C  0.16367023  0.06337288  0.37804084    -0.11600
C440        C  0.16589082  0.04841099  0.41418218     0.23800
C441        C  0.14314487  0.02755065  0.44568053    -0.12100
C442        C  0.11833644  0.02202183  0.44012746     0.05200
C443        C  0.19338801  0.05917253  0.42597478     0.27600
C444        C  0.20550525  0.04948134  0.39471063    -0.12800
C445        C  0.23329475  0.06436843  0.39207004     0.05700
C446        C  0.24903941  0.09001640  0.41492232    -0.08800
C447        C  0.23276434  0.09857571  0.92840942     0.06500
C448        C  0.20523011  0.08284447  0.92498822    -0.13100
Br449      Br  0.14595117  0.00632776  0.49415206    -0.05200
Br450      Br  0.14750589  0.09396894  0.36809727     0.00400
Br451      Br  0.25019886  0.05095259  0.35258067     0.00900
Br452      Br  0.18607563  0.09005757  0.97927344    -0.03500
Br453      Br  0.10170179  0.49097516  0.40042504     0.01000
Br454      Br  0.19334151  0.08801803  0.32463775    -0.02800
Br455      Br  0.18512355  0.01876082  0.34576225    -0.03700
Br456      Br  0.25053533  0.13130852  0.97223308     0.00300
C457        C  0.34060027  0.16496986  0.47401979     0.30400
C458        C  0.34147957  0.16459371  0.81961274     0.30400
C459        C  0.36153257  0.16604370  0.42619362    -0.05800
C460        C  0.31697406  0.14151917  0.43380886    -0.06600
C461        C  0.34271938  0.18654433  0.43453845    -0.06500
C462        C  0.36168423  0.16416313  0.85841486    -0.05900
C463        C  0.31682264  0.14191734  0.86185225    -0.06600
C464        C  0.34502009  0.18685731  0.86700203    -0.06500
C465        C  0.37821508  0.15829397  0.83915594    -0.31900
N466        N  0.38652495  0.15365467  0.88643776     0.14600
C467        C  0.37717057  0.15939575  0.43614427    -0.31900
H468        H  0.38062532  0.15596771  0.47922766     0.16500
C469        C  0.29152277  0.12209849  0.84603444    -0.30900
N470        N  0.27727226  0.10663293  0.40677048     0.13300
C471        C  0.29312179  0.11951925  0.45324057    -0.30900
C472        C  0.35236899  0.21117435  0.85639675    -0.31200
N473        N  0.35383154  0.22470146  0.40455143     0.13800
H474        H  0.35560870  0.21850567  0.81291799     0.16500
C475        C  0.35005788  0.21077274  0.45235456    -0.31200
H476        H  0.35396348  0.21843782  0.49763210     0.16500
H477        H  0.28655190  0.11495539  0.49948447     0.16500
H478        H  0.38234556  0.15556986  0.79313331     0.16500
H479        H  0.28454056  0.11838297  0.80154156     0.16500
C480        C  0.34091829  0.16375156  0.72347442     0.30400
C481        C  0.34036026  0.16408012  0.56956098     0.30400
C482        C  0.34034700  0.14313019  0.67625332    -0.05800
C483        C  0.31824927  0.16076822  0.68618470    -0.06600
C484        C  0.36404910  0.18719120  0.67940237    -0.06500
C485        C  0.33997648  0.14321649  0.60744231    -0.05900
C486        C  0.31825354  0.16123891  0.61769507    -0.06600
C487        C  0.36355811  0.18756454  0.61102247    -0.06500
C488        C  0.34586649  0.12697796  0.58678046    -0.31900
N489        N  0.35026052  0.11792317  0.63294219     0.14600
C490        C  0.34687227  0.12718823  0.68562197    -0.31900
H491        H  0.35039870  0.12366616  0.72845756     0.16500
C492        C  0.29413480  0.15489223  0.60718379    -0.30900
N493        N  0.27917074  0.14919809  0.65897793     0.13300
C494        C  0.29347891  0.15310990  0.70588616    -0.30900
C495        C  0.38379256  0.21291586  0.59596343    -0.31200
N496        N  0.39661024  0.22719112  0.64541156     0.13800
H497        H  0.38698830  0.22091592  0.55262693     0.16500
C498        C  0.38567366  0.21180387  0.69427240    -0.31200
H499        H  0.39123393  0.21891735  0.73958731     0.16500
H500        H  0.28552226  0.14860424  0.75143316     0.16500
H501        H  0.34815059  0.12299561  0.54042334     0.16500
H502        H  0.28673201  0.15165947  0.56340798     0.16500
O503        O  0.06504394  0.49604552  0.79238048    -0.74900
O504        O  0.03985991  0.47203036  0.87114725    -0.54700
C505        C  0.05852603  0.47926430  0.83187516     0.78800
O506        O  0.06696857  0.08973918  0.80199898    -0.59500
O507        O  0.53589176  0.09180692  0.77748385    -0.52600
C508        C  0.05442314  0.09761885  0.78811381     0.70800
O509        O  0.08188282  0.04249130  0.87694099    -0.74100
O510        O  0.07174455  0.52297039  0.90020392    -0.54700
C511        C  0.08142008  0.02372093  0.89145156     0.76800
O512        O  0.06935391  0.55534600  0.71282864    -0.59200
O513        O  0.54522707  0.07061169  0.71533940    -0.52400
C514        C  0.54989501  0.05673584  0.68635359     0.73400
Zr515      Zr  0.04105565  0.51094891  0.75442543     2.54700
O516        O  0.06504144  0.01718500  0.77997648    -0.79800
O517        O  0.52869967  0.47113782  0.73310218    -0.93200
Zr518      Zr  0.05311452  0.05074022  0.84602587     2.64700
O519        O  0.09129014  0.07455901  0.77392908    -0.98200
O520        O  0.07632996  0.08046606  0.92931004    -0.80200
O521        O  0.04337150  0.00933482  0.82552133    -0.83600
O522        O  0.01326026  0.01666632  0.80225357    -2.18300
O523        O  0.42890843  0.48355440  0.82401898    -0.67000
O524        O  0.44881580  0.52104565  0.77483425    -0.51600
C525        C  0.42677794  0.49905441  0.79871832     0.71800
O526        O  0.45610788  0.98607769  0.92372510    -0.59900
O527        O  0.96962152  0.46396777  0.91273735    -0.51900
C528        C  0.45515465  0.46622143  0.43849066     0.73600
O529        O  0.47696422  0.05840898  0.90340233    -0.71300
O530        O  0.48463586  0.06724677  0.80500210    -0.50000
C531        C  0.47614651  0.06877364  0.85705166     0.75000
O532        O  0.44558676  0.43209195  0.84863613    -0.66600
O533        O  0.47730230  0.44249420  0.90671017    -0.53800
C534        C  0.45419676  0.42407112  0.88171873     0.73300
Zr535      Zr  0.46266787  0.47692037  0.82249238     2.77500
O536        O  0.41311094  0.44578228  0.84469649    -0.97400
O537        O  0.44883801  0.43637863  0.77451515    -0.78200
Zr538      Zr  0.49235757  0.03252018  0.92628890     2.70100
O539        O  0.44794374  0.52464282  0.97212906    -0.79400
O540        O  0.02564215  0.07225121  0.92692736    -0.98500
Zr541      Zr  0.01770171  0.49111657  0.90217498     2.21500
Zr542      Zr  0.50118660  0.04392546  0.77092480     2.11100
O543        O  0.47279748  0.51822527  0.85073451    -2.47200
O544        O  0.49297852  0.50521557  0.88858264    -0.79200
O545        O  0.49790349  0.50851905  0.75633390    -0.71400
O546        O  0.02487370  0.02581724  0.93051887    -2.32400
O547        O  0.50265376  0.48120189  0.82027311    -2.28600
O548        O  0.01828853  0.05522940  0.84828040    -0.73200
H549        H  0.01745230  0.02037671  0.84153298     0.78800
H550        H  0.03225235  0.03545857  0.96658425     0.79900
H551        H  0.46005548  0.52039301  0.86517190     0.82100
H552        H  0.49697325  0.46397418  0.81221644     0.79700
H553        H  0.08330224  0.09781124  0.91535052     0.42800
H554        H  0.01749751  0.08017337  0.94270949     0.41700
H555        H  0.43399827  0.50936186  0.94885713     0.41400
H556        H  0.40156332  0.43975005  0.81094204     0.39300
H557        H  0.43254115  0.42957180  0.75477496     0.42500
H558        H  0.52059566  0.45829786  0.76507981     0.37300
H559        H  0.07906653  0.02272697  0.74821656     0.43400
H560        H  0.10556670  0.09037982  0.79597557     0.39800
H561        H  0.40768065  0.42880516  0.85674381     0.44700
H562        H  0.54385954  0.47169653  0.71975396     0.43400
H563        H  0.09812597  0.06470437  0.76732155     0.43600
H564        H  0.53679866  0.08507691  0.46921355     0.43900
O565        O  0.00091978  0.42869346  0.54286792    -0.74900
O566        O  0.02855800  0.45635338  0.61233896    -0.53900
C567        C  0.02165712  0.43903191  0.57226639     0.78800
O568        O  0.02259647  0.06329253  0.53544989    -0.59500
O569        O  0.47368084  0.03940376  0.54603746    -0.52600
C570        C  0.00346103  0.06442275  0.54052766     0.70800
O571        O  0.06977626  0.04972142  0.59327076    -0.74100
O572        O  0.06388391  0.01442599  0.61904027    -0.54700
C573        C  0.07974004  0.03910701  0.60709162     0.76800
O574        O  0.92770057  0.42636565  0.96163035    -0.59200
O575        O  0.41736277  0.95081535  0.97534481    -0.52400
C576        C  0.43040127  0.94401192  0.95213155     0.73400
Zr577      Zr  0.98263946  0.44964958  0.50813609     2.54700
O578        O  0.02056867  0.97932394  0.98652575    -0.79800
O579        O  0.48766492  0.42291696  0.96547933    -0.93200
Zr580      Zr  0.02690088  0.02930985  0.54973308     2.64700
O581        O  0.06163087  0.03447213  0.48719201    -0.98200
O582        O  0.05966421  0.07337955  0.58994720    -0.80200
O583        O  0.01785052  0.98961726  0.54925301    -0.83600
O584        O  0.99005030  0.99526836  0.50018798    -2.18300
O585        O  0.39331235  0.42350421  0.60395364    -0.67000
O586        O  0.40345512  0.45824012  0.55441957    -0.51600
C587        C  0.38744473  0.43498250  0.57514611     0.71800
O588        O  0.50801921  0.03438319  0.66095044    -0.59900
O589        O  0.02977310  0.51649963  0.66941741    -0.51900
C590        C  0.53212231  0.54080234  0.67940538     0.73600
O591        O  0.43293017  0.01417150  0.66488191    -0.71300
O592        O  0.42430682  0.00782443  0.56780318    -0.50000
C593        C  0.42332774  0.01657039  0.61939074     0.75000
O594        O  0.43825353  0.40546660  0.68424944    -0.66600
O595        O  0.48090920  0.42900092  0.70988278    -0.53800
C596        C  0.45775463  0.40669324  0.70016995     0.73300
Zr597      Zr  0.43094148  0.43550125  0.64993423     2.77500
O598        O  0.39266551  0.41401315  0.72271547    -0.97400
O599        O  0.40123846  0.39560396  0.59146697    -0.78200
Zr600      Zr  0.46300584  0.00195485  0.68104264     2.70100
O601        O  0.43809203  0.46764457  0.73701501    -0.79400
O602        O  0.98123430  0.05096444  0.68803375    -0.98500
Zr603      Zr  0.00470555  0.47052871  0.65953444     2.21500
Zr604      Zr  0.44325496  0.98644094  0.53900330     2.11100
O605        O  0.43357124  0.47425567  0.63815726    -2.47200
O606        O  0.46563834  0.47058393  0.70888522    -0.79200
O607        O  0.44928800  0.45506391  0.56243287    -0.71400
O608        O  0.99052886  0.99344386  0.60058648    -2.32400
O609        O  0.46964369  0.44028204  0.61412675    -2.28600
O610        O  0.98778334  0.02256892  0.58532702    -0.73200
H611        H  0.99435377  0.00396430  0.46614399     0.78800
H612        H  0.97460101  0.97880202  0.58669848     0.79900
H613        H  0.41785101  0.47246337  0.65010588     0.82100
H614        H  0.46885006  0.42537392  0.60918427     0.79700
H615        H  0.06801296  0.08536349  0.55586570     0.42800
H616        H  0.98916887  0.05912559  0.64879400     0.41700
H617        H  0.41984332  0.46146309  0.73328832     0.41400
H618        H  0.38196048  0.41935706  0.71361787     0.39300
H619        H  0.38501228  0.38322802  0.61676739     0.42500
H620        H  0.47665834  0.40887664  0.93570309     0.37300
H621        H  0.02706921  0.96934022  0.97429509     0.43400
H622        H  0.07698012  0.05324968  0.48931548     0.39800
H623        H  0.38128217  0.39519370  0.71204558     0.44700
H624        H  0.50515679  0.43588126  0.94499585     0.43400
H625        H  0.06706370  0.02542715  0.50591222     0.43600
H626        H  0.49888333  0.06133451  0.69728238     0.43900
C627        C  0.14868730  0.34039968  0.70872300     0.30400
C628        C  0.14712742  0.33854447  0.86273281     0.30400
C629        C  0.13529067  0.34963415  0.75671463    -0.05800
C630        C  0.13682669  0.31542081  0.74753987    -0.06600
C631        C  0.17581401  0.35765286  0.74994458    -0.06500
C632        C  0.13419658  0.34832444  0.82559612    -0.05900
C633        C  0.13601422  0.31423540  0.81596826    -0.06600
C634        C  0.17492985  0.35703874  0.81896368    -0.06500
C635        C  0.13039039  0.36600377  0.84663452    -0.31900
N636        N  0.12905073  0.37751450  0.80124019     0.14600
C637        C  0.13379535  0.36941119  0.74893990    -0.31900
H638        H  0.13979701  0.38029552  0.70919157     0.16500
C639        C  0.13254641  0.29180325  0.82477868    -0.30900
N640        N  0.13089770  0.28014195  0.77165563     0.13300
C641        C  0.13438527  0.29434171  0.72610950    -0.30900
C642        C  0.20167112  0.37555570  0.83327994    -0.31200
N643        N  0.21857873  0.38605520  0.78376333     0.13800
H644        H  0.20858070  0.38154752  0.87776758     0.16500
C645        C  0.20330078  0.37580095  0.73450223    -0.31200
H646        H  0.21167593  0.38135835  0.68945739     0.16500
H647        H  0.13708562  0.29044240  0.67998869     0.16500
H648        H  0.13192447  0.37269941  0.89205288     0.16500
H649        H  0.13367720  0.28549718  0.86649552     0.16500
C650        C  0.14328528  0.33489172  0.95856530     0.30400
C651        C  0.14509274  0.33642892  0.11247821     0.30400
C652        C  0.13119124  0.34542336  0.00599525    -0.05800
C653        C  0.12861778  0.30831853  0.00061328    -0.06600
C654        C  0.16901547  0.34937624  0.99620316    -0.06500
C655        C  0.13135345  0.34558237  0.07478703    -0.05900
C656        C  0.12964220  0.30897427  0.06940048    -0.06600
C657        C  0.17020103  0.35051886  0.06489147    -0.06500
C658        C  0.11034215  0.34561505  0.09364368    -0.31900
N659        N  0.09971563  0.34781891  0.04707337     0.14600
C660        C  0.11134115  0.34671058  0.99557535    -0.31900
H661        H  0.10367261  0.34405583  0.95269977     0.16500
C662        C  0.11476580  0.28230544  0.08344204    -0.30900
N663        N  0.10498007  0.26597044  0.03384586     0.13300
C664        C  0.11265761  0.28143158  0.98543825    -0.30900
C665        C  0.19336979  0.35496451  0.07335787    -0.31200
N666        N  0.20486789  0.35593425  0.01998023     0.13800
H667        H  0.20014003  0.35466996  0.11539535     0.16500
C668        C  0.19051847  0.35185641  0.97470663    -0.31200
H669        H  0.19409631  0.34778637  0.92948259     0.16500
H670        H  0.10605240  0.27337323  0.94145807     0.16500
H671        H  0.10120835  0.34130044  0.13792384     0.16500
H672        H  0.11122009  0.27525952  0.12798777     0.16500
C673        C  0.01306708  0.09356505  0.54758166     0.01700
C674        C  0.03697055  0.11329347  0.57659788     0.04500
C675        C  0.05193845  0.14084604  0.56869720    -0.11600
C676        C  0.04316011  0.14862748  0.03927541     0.23800
C677        C  0.01693999  0.12885239  0.01894673    -0.12100
C678        C  0.00245618  0.10095138  0.02666657     0.05200
C679        C  0.05889578  0.17919415  0.03452423     0.27600
C680        C  0.04907837  0.19191228  0.06327267    -0.12800
C681        C  0.06339011  0.21972452  0.06015503     0.05700
C682        C  0.08925069  0.23682706  0.03249646    -0.08800
C683        C  0.09912082  0.22442592  0.00296949     0.06500
C684        C  0.08453776  0.19646900  0.00405334    -0.13100
Br685      Br  0.00177685  0.13980897  0.97368695    -0.05200
Br686      Br  0.04413982  0.10360936  0.64496540     0.00400
Br687      Br  0.03886047  0.23332717  0.57644325     0.00900
Br688      Br  0.10064847  0.18239117  0.96288929    -0.03500
Br689      Br  0.46497754  0.07956568  0.01661068     0.01000
Br690      Br  0.08571578  0.16377449  0.60372114    -0.02800
Br691      Br  0.01186430  0.17165137  0.60264738    -0.03700
Br692      Br  0.13290244  0.24605433  0.95929033     0.00300
C693        C  0.36053615  0.42033742  0.56374840     0.01700
C694        C  0.34712738  0.39612971  0.00839046     0.04500
C695        C  0.32102812  0.38299552  0.99416138    -0.11600
C696        C  0.30606927  0.38896367  0.02727499     0.23800
C697        C  0.32084976  0.41541168  0.58166810    -0.12100
C698        C  0.34643455  0.42705612  0.59620097     0.05200
C699        C  0.28024901  0.37818712  0.00981133     0.27600
C700        C  0.27644243  0.39558986  0.99050291    -0.12800
C701        C  0.25093403  0.38755087  0.99230946     0.05700
C702        C  0.22986560  0.36232395  0.01120459    -0.08800
C703        C  0.23333173  0.34431889  0.02565560     0.06500
C704        C  0.25892354  0.35252409  0.02680532    -0.13100
Br705      Br  0.30151003  0.42604145  0.62335013    -0.05200
Br706      Br  0.36845052  0.38856359  0.96427195     0.00400
Br707      Br  0.24499975  0.41223950  0.97874582     0.00900
Br708      Br  0.27399709  0.34076400  0.59245455    -0.03500
Br709      Br  0.36252204  0.45104759  0.66219527     0.01000
Br710      Br  0.30607171  0.35743469  0.92946820    -0.02800
Br711      Br  0.30583124  0.43225717  0.97694564    -0.03700
Br712      Br  0.20307805  0.30941258  0.04807952     0.00300
C713        C  0.03944265  0.43186046  0.55935794     0.01700
C714        C  0.06648580  0.45136752  0.54469628     0.04500
C715        C  0.05061601  0.40515330  0.01559681    -0.11600
C716        C  0.03387605  0.37780216  0.02236365     0.23800
C717        C  0.04838438  0.40132824  0.57013318    -0.12100
C718        C  0.03046532  0.40662191  0.56765461     0.05200
C719        C  0.04642189  0.36537665  0.03500167     0.27600
C720        C  0.04415123  0.34576835  0.99790030    -0.12800
C721        C  0.05854795  0.33697618  0.00964188     0.05700
C722        C  0.07918600  0.35085068  0.05004461    -0.08800
C723        C  0.08145319  0.37030022  0.08714828     0.06500
C724        C  0.11516620  0.42380438  0.58510115    -0.13100
Br725      Br  0.03552180  0.36761785  0.59647879    -0.05200
Br726      Br  0.07762785  0.48530281  0.52843072     0.00400
Br727      Br  0.04911686  0.30505158  0.97220175     0.00900
Br728      Br  0.12520396  0.45094417  0.64327355    -0.03500
Br729      Br  0.49282160  0.38348661  0.56357906     0.01000
Br730      Br  0.08830839  0.42472918  0.99932859    -0.02800
Br731      Br  0.02476940  0.33278969  0.92599752    -0.03700
Br732      Br  0.16026968  0.42941491  0.62594052     0.00300
C733        C  0.07053783  0.12592404  0.78200990     0.01700
C734        C  0.06534804  0.14019111  0.82020088     0.04500
C735        C  0.07833396  0.16636617  0.80984498    -0.11600
C736        C  0.09870325  0.17902431  0.76507147     0.23800
C737        C  0.10753421  0.16623231  0.73419938    -0.12100
C738        C  0.09299927  0.13935837  0.74175383     0.05200
C739        C  0.11048460  0.20587028  0.75277302     0.27600
C740        C  0.09416627  0.21056680  0.72963768    -0.12800
C741        C  0.10098420  0.23523439  0.73686609     0.05700
C742        C  0.12481311  0.25545443  0.76325883    -0.08800
C743        C  0.14201315  0.25135646  0.78247263     0.06500
C744        C  0.13436847  0.22620882  0.77931023    -0.13100
Br745      Br  0.13905041  0.18522410  0.68139459    -0.05200
Br746      Br  0.04350994  0.12561171  0.89136094     0.00400
Br747      Br  0.07554566  0.24020709  0.72024740     0.00900
Br748      Br  0.15414962  0.21893388  0.82041410    -0.03500
Br749      Br  0.10385982  0.12125762  0.69624678     0.01000
Br750      Br  0.06777203  0.18485042  0.85621304    -0.02800
Br751      Br  0.05927903  0.18218606  0.70216187    -0.03700
Br752      Br  0.17527930  0.27997362  0.81541370     0.00300
C753        C  0.39649001  0.48765819  0.80136016     0.01700
C754        C  0.38431393  0.49616135  0.77289457     0.04500
C755        C  0.35572565  0.47952632  0.76729330    -0.11600
C756        C  0.33762240  0.45436209  0.79372472     0.23800
C757        C  0.34981831  0.44781510  0.82849352    -0.12100
C758        C  0.37757004  0.46529444  0.83709827     0.05200
C759        C  0.30651318  0.43642989  0.79034748     0.27600
C760        C  0.29177449  0.44474416  0.81502697    -0.12800
C761        C  0.26344199  0.42896871  0.81036422     0.05700
C762        C  0.24815507  0.40340456  0.78445648    -0.08800
C763        C  0.26239159  0.39432395  0.76357189     0.06500
C764        C  0.29081976  0.41039392  0.76549662    -0.13100
Br765      Br  0.32924971  0.41498171  0.86750529    -0.05200
Br766      Br  0.40357687  0.53261958  0.76795015     0.00400
Br767      Br  0.24541203  0.44274270  0.83824097     0.00900
Br768      Br  0.30748887  0.39569687  0.73241652    -0.03500
Br769      Br  0.38612511  0.46533840  0.91618061     0.01000
Br770      Br  0.34192963  0.48880344  0.71277283    -0.02800
Br771      Br  0.31002936  0.47695810  0.86104331    -0.03700
Br772      Br  0.24222360  0.35867841  0.73494180     0.00300
C773        C  0.12289627  0.39527436  0.80697666     0.01700
C774        C  0.13710001  0.41777126  0.84434455     0.04500
C775        C  0.12879590  0.43325308  0.85389532    -0.11600
C776        C  0.10808838  0.42805962  0.82068883     0.23800
C777        C  0.09583880  0.40691944  0.77915021    -0.12100
C778        C  0.10149830  0.38945103  0.77658077     0.05200
C779        C  0.09721048  0.44276738  0.83105983     0.27600
C780        C  0.07034652  0.42901520  0.84996277    -0.12800
C781        C  0.05804425  0.44065808  0.84876466     0.05700
C782        C  0.07232102  0.46700264  0.83179452    -0.08800
C783        C  0.09968589  0.48106671  0.81519177     0.06500
C784        C  0.11187579  0.46896991  0.81398766    -0.13100
Br785      Br  0.07034572  0.40108071  0.72652666    -0.05200
Br786      Br  0.16831474  0.42779068  0.88124172     0.00400
Br787      Br  0.02081651  0.41857192  0.86676070     0.00900
Br788      Br  0.14823314  0.48752393  0.78473939    -0.03500
Br789      Br  0.07732478  0.35567525  0.73840428     0.01000
Br790      Br  0.14561648  0.46077529  0.91377191    -0.02800
Br791      Br  0.04930791  0.39283668  0.87280107    -0.03700
Br792      Br  0.12074432  0.51696066  0.79373745     0.00300
C793        C  0.35946113  0.10259427  0.62716152     0.01700
C794        C  0.38510542  0.11336879  0.60264548     0.04500
C795        C  0.39426980  0.09855224  0.59887176    -0.11600
C796        C  0.37833110  0.07295833  0.62255351     0.23800
C797        C  0.35272346  0.06258902  0.64809458    -0.12100
C798        C  0.34319620  0.07698499  0.64841101     0.05200
C799        C  0.38903528  0.05787623  0.62328888     0.27600
C800        C  0.37738308  0.03399696  0.59122612    -0.12800
C801        C  0.38782255  0.02030177  0.59234899     0.05700
C802        C  0.41086524  0.03037738  0.62400317    -0.08800
C803        C  0.42305430  0.05511334  0.65339799     0.06500
C804        C  0.41159372  0.06782152  0.65543089    -0.13100
Br805      Br  0.33071347  0.02937343  0.68663959    -0.05200
Br806      Br  0.40829940  0.14915217  0.57742404     0.00400
Br807      Br  0.36951675  0.98718164  0.55023003     0.00900
Br808      Br  0.42717841  0.09937702  0.70335643    -0.03500
Br809      Br  0.30735621  0.06164791  0.67686599     0.01000
Br810      Br  0.42919472  0.11415508  0.56214747    -0.02800
Br811      Br  0.34710288  0.01987583  0.54412056    -0.03700
Br812      Br  0.45589281  0.07323371  0.69155382     0.00300
C813        C  0.41323493  0.25512450  0.65022476     0.01700
C814        C  0.43401819  0.27189531  0.60804281     0.04500
C815        C  0.44753846  0.29907272  0.61376513    -0.11600
C816        C  0.44373359  0.30940653  0.66687972     0.23800
C817        C  0.42673762  0.29225525  0.71196802    -0.12100
C818        C  0.40804305  0.26614114  0.69827994     0.05200
C819        C  0.44911086  0.33497913  0.67060354     0.27600
C820        C  0.47117341  0.35670481  0.69917069    -0.12800
C821        C  0.47500569  0.38039335  0.70540440     0.05700
C822        C  0.45412412  0.38133331  0.69477159    -0.08800
C823        C  0.43079128  0.35807659  0.66924967     0.06500
C824        C  0.42872254  0.33556367  0.65672481    -0.13100
Br825      Br  0.42632297  0.30461039  0.78947222    -0.05200
Br826      Br  0.44298516  0.25826736  0.54159035     0.00400
Br827      Br  0.51123901  0.41128240  0.71140030     0.00900
Br828      Br  0.39617783  0.30382451  0.62558640    -0.03500
Br829      Br  0.37196608  0.25001487  0.72490225     0.01000
Br830      Br  0.46960745  0.32086931  0.54821495    -0.02800
Br831      Br  0.49545465  0.35333722  0.73228787    -0.03700
Br832      Br  0.40030315  0.35461754  0.64809098     0.00300
C833        C  0.25047012  0.13357207  0.66094839     0.01700
C834        C  0.23726917  0.14250971  0.69013996     0.04500
C835        C  0.20944001  0.12786403  0.68620075    -0.11600
C836        C  0.19435564  0.10373276  0.65404883     0.23800
C837        C  0.20753861  0.09371433  0.63032047    -0.12100
C838        C  0.23522265  0.10859642  0.63363578     0.05200
C839        C  0.16502695  0.08888187  0.64538643     0.27600
C840        C  0.14622152  0.06336478  0.66630489    -0.12800
C841        C  0.12060966  0.04696332  0.64480743     0.05700
C842        C  0.10980957  0.05648980  0.61580284    -0.08800
C843        C  0.12840421  0.08308254  0.59772774     0.06500
C844        C  0.15575427  0.09877634  0.61085807    -0.13100
Br845      Br  0.18860466  0.05949587  0.59282169    -0.05200
Br846      Br  0.25721623  0.17445280  0.73667625     0.00400
Br847      Br  0.09209023  0.48917297  0.66485865     0.00900
Br848      Br  0.18041622  0.13385189  0.58015293    -0.03500
Br849      Br  0.25234053  0.09388174  0.60426654     0.01000
Br850      Br  0.19191986  0.14061267  0.72670351    -0.02800
Br851      Br  0.15506276  0.04941047  0.72261057    -0.03700
Br852      Br  0.11882492  0.09802370  0.54696722     0.00300
C853        C  0.46377089  0.08236629  0.86243105     0.01700
C854        C  0.47539237  0.10620851  0.83303354     0.04500
C855        C  0.46302549  0.11814255  0.83737755    -0.11600
C856        C  0.43902180  0.10690811  0.87204295     0.23800
C857        C  0.42729428  0.08300174  0.90011713    -0.12100
C858        C  0.43865938  0.07029193  0.89240313     0.05200
C859        C  0.42530100  0.11911864  0.87599359     0.27600
C860        C  0.43611973  0.14611842  0.40022984    -0.12800
C861        C  0.42406560  0.15783306  0.39931362     0.05700
C862        C  0.39961273  0.14213345  0.88251048    -0.08800
C863        C  0.38697097  0.11699854  0.85711975     0.06500
C864        C  0.39974109  0.10566826  0.85282151    -0.13100
Br865      Br  0.39511232  0.06688129  0.94954639    -0.05200
Br866      Br  0.50763648  0.12254948  0.78352283     0.00400
Br867      Br  0.44239245  0.19369683  0.42526902     0.00900
Br868      Br  0.38115549  0.07143436  0.81519925    -0.03500
Br869      Br  0.41323299  0.53456983  0.92289030     0.01000
Br870      Br  0.47866762  0.14951197  0.79315336    -0.02800
Br871      Br  0.46917113  0.16520413  0.43863374    -0.03700
Br872      Br  0.35102440  0.09720728  0.83235034     0.00300
C873        C  0.36682550  0.25228546  0.91172386     0.01700
C874        C  0.35189741  0.26060854  0.43878619     0.04500
C875        C  0.36149745  0.28599004  0.90126561    -0.11600
C876        C  0.38914976  0.30640626  0.90709123     0.23800
C877        C  0.40474119  0.29916432  0.92090945    -0.12100
C878        C  0.39387463  0.27249273  0.92195996     0.05200
C879        C  0.40234870  0.33543033  0.90043725     0.27600
C880        C  0.40726511  0.34716715  0.84553551    -0.12800
C881        C  0.41995032  0.37456693  0.84275485     0.05700
C882        C  0.43516631  0.39279806  0.89047689    -0.08800
C883        C  0.42568720  0.37918885  0.94637709     0.06500
C884        C  0.40811716  0.35137236  0.95050864    -0.13100
Br885      Br  0.44217832  0.32610446  0.93007563    -0.05200
Br886      Br  0.31738552  0.23494820  0.47631005     0.00400
Br887      Br  0.40028063  0.38043322  0.79832419     0.00900
Br888      Br  0.43263276  0.33984632  0.50426048    -0.03500
Br889      Br  0.41648954  0.26342929  0.93233044     0.01000
Br890      Br  0.33825359  0.29444390  0.89262442    -0.02800
Br891      Br  0.38850605  0.32388896  0.77942208    -0.03700
Br892      Br  0.44203583  0.39451789  0.52245070     0.00300
C893        C  0.10934561  0.03168810  0.89163992     0.01700
C894        C  0.13152208  0.05869807  0.88247010     0.04500
C895        C  0.15670131  0.06648368  0.86383114    -0.11600
C896        C  0.16317916  0.05019895  0.87300911     0.23800
C897        C  0.14240606  0.02404735  0.88814809    -0.12100
C898        C  0.11550099  0.01432580  0.89257428     0.05200
C899        C  0.19185361  0.06283167  0.88111184     0.27600
C900        C  0.20654865  0.05707270  0.84452729    -0.12800
C901        C  0.23375675  0.07071162  0.85377113     0.05700
C902        C  0.24715998  0.09206765  0.89444438    -0.08800
C903        C  0.23714449  0.10035080  0.44295012     0.06500
C904        C  0.20962299  0.08440633  0.45253880    -0.13100
Br905      Br  0.15135239  0.00223963  0.90607535    -0.05200
Br906      Br  0.13074011  0.08710022  0.90724450     0.00400
Br907      Br  0.25302599  0.06051792  0.81033817     0.00900
Br908      Br  0.19415547  0.09955407  0.49012313    -0.03500
Br909      Br  0.10304671  0.51128361  0.96256852     0.01000
Br910      Br  0.18394139  0.10136415  0.83425147    -0.02800
Br911      Br  0.19071927  0.03215246  0.77931810    -0.03700
Br912      Br  0.25800926  0.13763051  0.45673969     0.00300
C913        C  0.34243742  0.66517341  0.96509201     0.30400
C914        C  0.34393868  0.66446295  0.31086423     0.30400
C915        C  0.36521655  0.66894274  0.91782770    -0.05800
C916        C  0.32027213  0.64117016  0.92177833    -0.06600
C917        C  0.34283162  0.68593026  0.92662010    -0.06500
C918        C  0.36585134  0.66619136  0.34864647    -0.05900
C919        C  0.32116609  0.64106509  0.35355203    -0.06600
C920        C  0.34581566  0.68599724  0.35774466    -0.06500
C921        C  0.38150274  0.65922334  0.32908336    -0.31900
N922        N  0.38996056  0.65462017  0.37608666     0.14600
C923        C  0.37944510  0.66053573  0.92686232    -0.31900
H924        H  0.38167280  0.65566546  0.96951082     0.16500
C925        C  0.29671483  0.61993307  0.33811712    -0.30900
N926        N  0.27995511  0.61072087  0.88709570     0.13300
C927        C  0.29447593  0.62054857  0.93646197    -0.30900
C928        C  0.35211296  0.71002955  0.34696628    -0.31200
N929        N  0.35252862  0.72376276  0.89889232     0.13800
H930        H  0.35523663  0.71773571  0.30324060     0.16500
C931        C  0.34892822  0.70955078  0.94585028    -0.31200
H932        H  0.35281802  0.71690159  0.99139500     0.16500
H933        H  0.28586004  0.61630422  0.98109468     0.16500
H934        H  0.38472558  0.65556782  0.28312674     0.16500
H935        H  0.28977322  0.61518418  0.29371408     0.16500
C936        C  0.34145005  0.66272223  0.21557803     0.30400
C937        C  0.34167438  0.66421416  0.06165498     0.30400
C938        C  0.34577896  0.64570953  0.16730249    -0.05800
C939        C  0.31612338  0.65437896  0.17767507    -0.06600
C940        C  0.36159845  0.68778458  0.17447193    -0.06500
C941        C  0.34553058  0.64609249  0.09866762    -0.05900
C942        C  0.31638233  0.65524585  0.10901914    -0.06600
C943        C  0.36225108  0.68903823  0.10658978    -0.06500
C944        C  0.34932661  0.62836881  0.07796125    -0.31900
N945        N  0.35279713  0.61856511  0.12422621     0.14600
C946        C  0.35049733  0.62850170  0.17693677    -0.31900
H947        H  0.35248188  0.62366799  0.21998532     0.16500
C948        C  0.28987168  0.64159551  0.09753181    -0.30900
N949        N  0.27369098  0.63165795  0.14807844     0.13300
C950        C  0.28922641  0.63968369  0.19561216    -0.30900
C951        C  0.38473284  0.71444997  0.09525620    -0.31200
N952        N  0.39763660  0.72752952  0.14669058     0.13800
H953        H  0.39022868  0.72268545  0.05157970     0.16500
C954        C  0.38297150  0.71143492  0.19317393    -0.31200
H955        H  0.38643098  0.71601482  0.23950853     0.16500
H956        H  0.28125795  0.63421952  0.24065488     0.16500
H957        H  0.34998563  0.62315188  0.03170916     0.16500
H958        H  0.28246327  0.63767380  0.05381250     0.16500
O959        O  0.05946332  0.99008086  0.28812023    -0.74900
O960        O  0.03427642  0.96722971  0.36878079    -0.54700
C961        C  0.05148030  0.97263307  0.32687508     0.78800
O962        O  0.07407277  0.59861915  0.31017069    -0.59500
O963        O  0.53767412  0.59285875  0.29417421    -0.52600
C964        C  0.06063036  0.60451757  0.29045629     0.70800
O965        O  0.09156321  0.55193223  0.37524841    -0.74100
O966        O  0.06793177  0.01179414  0.40814848    -0.54700
C967        C  0.09108538  0.53413295  0.39670003     0.76800
O968        O  0.06825644  0.05319758  0.20663496    -0.59200
O969        O  0.54762855  0.57245874  0.22189111    -0.52400
C970        C  0.55195945  0.55814298  0.19388215     0.73400
Zr971      Zr  0.03954326  0.00867645  0.25012691     2.54700
O972        O  0.08714604  0.53503808  0.22216846    -0.79800
O973        O  0.52620054  0.96972163  0.22513039    -0.93200
Zr974      Zr  0.06310116  0.56217171  0.35847875     2.64700
O975        O  0.10290108  0.58972871  0.29322136    -0.98200
O976        O  0.08267221  0.59066936  0.44547722    -0.80200
O977        O  0.05494997  0.52180469  0.33254415    -0.83600
O978        O  0.03353112  0.53574132  0.28880566    -2.18300
O979        O  0.42552723  0.98064891  0.31414840    -0.67000
O980        O  0.44467558  0.01862688  0.26809315    -0.51600
C981        C  0.42311796  0.99625339  0.29088063     0.71800
O982        O  0.45769400  0.48698842  0.43328049    -0.59900
O983        O  0.97190162  0.96736280  0.41387397    -0.51900
C984        C  0.45370264  0.96537888  0.92942736     0.73600
O985        O  0.47767172  0.55773188  0.41311643    -0.71300
O986        O  0.48377380  0.56502061  0.31417957    -0.50000
C987        C  0.47571695  0.56690730  0.36621162     0.75000
O988        O  0.44411489  0.93032328  0.33992845    -0.66600
O989        O  0.47658113  0.94141064  0.39754089    -0.53800
C990        C  0.45307665  0.92268897  0.37334749     0.73300
Zr991      Zr  0.45900296  0.97427674  0.31240690     2.77500
O992        O  0.40973444  0.94218921  0.33545337    -0.97400
O993        O  0.44530769  0.93356272  0.26593444    -0.78200
Zr994      Zr  0.49457041  0.53312891  0.43452334     2.70100
O995        O  0.44669607  0.02704846  0.46563593    -0.79400
O996        O  0.02981906  0.57628018  0.42993207    -0.98500
Zr997      Zr  0.01842075  0.99152462  0.40218642     2.21500
Zr998      Zr  0.50376562  0.54533808  0.27958557     2.11100
O999        O  0.46914161  0.01569780  0.34530399    -2.47200
O1000       O  0.49013514  0.00439874  0.37899361    -0.79200
O1001       O  0.49412994  0.00644053  0.24695864    -0.71400
O1002       O  0.03148942  0.53238331  0.43055047    -2.32400
O1003       O  0.49984468  0.98003746  0.30986021    -2.28600
O1004       O  0.02444884  0.56043238  0.35708910    -0.73200
H1005       H  0.02291224  0.52437654  0.31848421     0.78800
H1006       H  0.03682597  0.54005362  0.46922043     0.79900
H1007       H  0.45584466  0.01725673  0.35931054     0.82100
H1008       H  0.49444094  0.96289586  0.30234216     0.79700
H1009       H  0.09002043  0.60814964  0.43164544     0.42800
H1010       H  0.02086052  0.58373982  0.44236202     0.41700
H1011       H  0.43199409  0.00898521  0.45323636     0.41400
H1012       H  0.39818482  0.93624986  0.30176235     0.39300
H1013       H  0.42888313  0.92653541  0.24656370     0.42500
H1014       H  0.51832389  0.95709794  0.25755310     0.37300
H1015       H  0.09521561  0.53632936  0.25923932     0.43400
H1016       H  0.11715625  0.60250771  0.32037513     0.39800
H1017       H  0.40496489  0.92536435  0.34654017     0.44700
H1018       H  0.54125967  0.97014987  0.21105656     0.43400
H1019       H  0.10777322  0.57872841  0.27796007     0.43600
H1020       H  0.53713967  0.58784224  0.97794249     0.43900
O1021       O  0.99269591  0.92432046  0.03480603    -0.74900
O1022       O  0.02113058  0.95079366  0.10530448    -0.53900
C1023       C  0.01317022  0.93346490  0.06448985     0.78800
O1024       O  0.01611930  0.55387957  0.05179722    -0.59500
O1025       O  0.47477030  0.54139001  0.05301148    -0.52600
C1026       C  0.99793137  0.55635182  0.04756363     0.70800
O1027       O  0.06242060  0.53120686  0.09036761    -0.74100
O1028       O  0.05143832  0.49446445  0.12399221    -0.54700
C1029       C  0.06966983  0.51826182  0.10639518     0.76800
O1030       O  0.93425719  0.93275489  0.47084579    -0.59200
O1031       O  0.41885055  0.45176165  0.48470150    -0.52400
C1032       C  0.43194552  0.44497281  0.46193645     0.73400
Zr1033     Zr  0.97438380  0.94649146  0.01045891     2.54700
O1034       O  0.02752749  0.48650656  0.48705082    -0.79800
O1035       O  0.48137648  0.91675889  0.45759291    -0.93200
Zr1036     Zr  0.01816877  0.51724452  0.06006163     2.64700
O1037       O  0.04496940  0.51401033  0.98907405    -0.98200
O1038       O  0.04699650  0.56509603  0.06392080    -0.80200
O1039       O  0.00668559  0.47608030  0.05281422    -0.83600
O1040       O  0.98333994  0.48623929  0.00494202    -2.18300
O1041       O  0.39016258  0.92071081  0.09214618    -0.67000
O1042       O  0.40070213  0.95571963  0.04266148    -0.51600
C1043       C  0.38442269  0.93217805  0.06252912     0.71800
O1044       O  0.50925038  0.53542865  0.17353163    -0.59900
O1045       O  0.02774796  0.01454640  0.16578463    -0.51900
C1046       C  0.52763934  0.03870503  0.17011387     0.73600
O1047       O  0.43610400  0.51768412  0.17209257    -0.71300
O1048       O  0.42642645  0.50916541  0.07525885    -0.50000
C1049       C  0.42620237  0.51912649  0.12549361     0.75000
O1050       O  0.43564984  0.90319800  0.17440540    -0.66600
O1051       O  0.47813784  0.92728633  0.20226855    -0.53800
C1052       C  0.45525981  0.90478592  0.19168103     0.73300
Zr1053     Zr  0.42788956  0.93311551  0.13971898     2.77500
O1054       O  0.38933700  0.91052479  0.21175758    -0.97400
O1055       O  0.40012367  0.89352562  0.07918750    -0.78200
Zr1056     Zr  0.46357251  0.50299407  0.19501318     2.70100
O1057       O  0.43242725  0.96356491  0.22564346    -0.79400
O1058       O  0.97664536  0.54277300  0.18989990    -0.98500
Zr1059     Zr  0.00157022  0.96848048  0.15783872     2.21500
Zr1060     Zr  0.44611791  0.48881190  0.04717115     2.11100
O1061       O  0.43014756  0.97184411  0.12854995    -2.47200
O1062       O  0.46223302  0.96782743  0.20035832    -0.79200
O1063       O  0.44682432  0.95381049  0.05335931    -0.71400
O1064       O  0.98333741  0.48441829  0.11960174    -2.32400
O1065       O  0.46709475  0.93867525  0.10549821    -2.28600
O1066       O  0.97943129  0.51019211  0.09113530    -0.73200
H1067       H  0.99262980  0.49658042  0.97264862     0.78800
H1068       H  0.96942777  0.47102197  0.09540577     0.79900
H1069       H  0.41428078  0.96994961  0.13926808     0.82100
H1070       H  0.46628054  0.92377204  0.10084024     0.79700
H1071       H  0.06514054  0.57104730  0.05550656     0.42800
H1072       H  0.97916666  0.54786396  0.14844153     0.41700
H1073       H  0.41442615  0.95827713  0.22333512     0.41400
H1074       H  0.37810774  0.91519898  0.20219150     0.39300
H1075       H  0.38397388  0.88065384  0.10404019     0.42500
H1076       H  0.47071403  0.90195786  0.42964301     0.37300
H1077       H  0.03567235  0.47840820  0.47164469     0.43400
H1078       H  0.06064071  0.53218585  0.99432676     0.39800
H1079       H  0.37864235  0.89175048  0.20089804     0.44700
H1080       H  0.49915319  0.92799334  0.43698214     0.43400
H1081       H  0.05043818  0.50433156  0.00426435     0.43600
H1082       H  0.49731725  0.56141302  0.21293425     0.43900
C1083       C  0.14565690  0.83756892  0.20891599     0.30400
C1084       C  0.14538835  0.83759846  0.36326280     0.30400
C1085       C  0.13014507  0.84432872  0.25599664    -0.05800
C1086       C  0.13709785  0.81411750  0.24922745    -0.06600
C1087       C  0.17282964  0.85720984  0.24913848    -0.06500
C1088       C  0.12956453  0.84396739  0.32502423    -0.05900
C1089       C  0.13660653  0.81385267  0.31807592    -0.06600
C1090       C  0.17260929  0.85731458  0.31829386    -0.06500
C1091       C  0.12303481  0.85977912  0.34376745    -0.31900
N1092       N  0.11964463  0.86908476  0.29691116     0.14600
C1093       C  0.12580009  0.86171747  0.24582238    -0.31900
H1094       H  0.13116274  0.87198465  0.20529868     0.16500
C1095       C  0.13786296  0.79470183  0.32942974    -0.30900
N1096       N  0.13939314  0.78439021  0.27750233     0.13300
C1097       C  0.14020005  0.79630712  0.23022299    -0.30900
C1098       C  0.19959097  0.87529952  0.33075072    -0.31200
N1099       N  0.21587212  0.88503004  0.28008085     0.13800
H1100       H  0.20714240  0.88094795  0.37474275     0.16500
C1101       C  0.20005748  0.87469436  0.23187998    -0.31200
H1102       H  0.20790852  0.87917515  0.18625361     0.16500
H1103       H  0.14276658  0.79194297  0.18430905     0.16500
H1104       H  0.12452303  0.86737279  0.38812393     0.16500
H1105       H  0.13923314  0.78945735  0.37253911     0.16500
C1106       C  0.14219801  0.83363797  0.45918932     0.30400
C1107       C  0.14396278  0.83471511  0.61315479     0.30400
C1108       C  0.12954731  0.84329393  0.50716479    -0.05800
C1109       C  0.12819576  0.80703279  0.50091815    -0.06600
C1110       C  0.16814395  0.84875713  0.49694702    -0.06500
C1111       C  0.12971330  0.84334446  0.57586758    -0.05900
C1112       C  0.12922047  0.80766914  0.56972293    -0.06600
C1113       C  0.16929361  0.84949828  0.56569111    -0.06500
C1114       C  0.10883205  0.84349870  0.59501101    -0.31900
N1115       N  0.09812257  0.84551369  0.54829516     0.14600
C1116       C  0.10957935  0.84423444  0.49689417    -0.31900
H1117       H  0.10162619  0.84108673  0.45437379     0.16500
C1118       C  0.11487753  0.78131931  0.58423737    -0.30900
N1119       N  0.10528301  0.76495932  0.53505644     0.13300
C1120       C  0.11282300  0.78012023  0.48603485    -0.30900
C1121       C  0.19265130  0.85404625  0.57362942    -0.31200
N1122       N  0.20446072  0.85569839  0.52004310     0.13800
H1123       H  0.19896357  0.85270514  0.61517756     0.16500
C1124       C  0.19007077  0.85201352  0.47508599    -0.31200
H1125       H  0.19357008  0.84810733  0.42960702     0.16500
H1126       H  0.10673649  0.77188646  0.44180102     0.16500
H1127       H  0.10026877  0.84003366  0.63975929     0.16500
H1128       H  0.11154204  0.77448460  0.62875883     0.16500
C1129       C  0.00801409  0.58600080  0.05197440     0.01700
C1130       C  0.03235777  0.60616504  0.07859786     0.04500
C1131       C  0.04708128  0.63366284  0.07104885    -0.11600
C1132       C  0.04389814  0.64844681  0.53951591     0.23800
C1133       C  0.01847002  0.62875313  0.51579693    -0.12100
C1134       C  0.00390186  0.60101304  0.52460976     0.05200
C1135       C  0.05945757  0.67874201  0.53482964     0.27600
C1136       C  0.04884444  0.69103213  0.56124559    -0.12800
C1137       C  0.06357575  0.71891346  0.56065064     0.05700
C1138       C  0.08983438  0.73602454  0.53496321    -0.08800
C1139       C  0.10096553  0.72410432  0.51099395     0.06500
C1140       C  0.08610986  0.69620691  0.50953576    -0.13100
Br1141     Br  0.00498169  0.63952310  0.46375848    -0.05200
Br1142     Br  0.03954787  0.59764363  0.14739026     0.00400
Br1143     Br  0.04164904  0.73186157  0.09156092     0.00900
Br1144     Br  0.10316803  0.68250453  0.47163965    -0.03500
Br1145     Br  0.46704988  0.58072917  0.52128330     0.01000
Br1146     Br  0.08168318  0.65647139  0.10307183    -0.02800
Br1147     Br  0.00963016  0.66867918  0.11229697    -0.03700
Br1148     Br  0.13787219  0.74657939  0.48472952     0.00300
C1149       C  0.35729891  0.91731720  0.04992091     0.01700
C1150       C  0.34436827  0.88828015  0.50388889     0.04500
C1151       C  0.31782474  0.87366508  0.48927660    -0.11600
C1152       C  0.30153285  0.87817804  0.52152702     0.23800
C1153       C  0.31692102  0.91127954  0.06880238    -0.12100
C1154       C  0.34312281  0.92434381  0.08085993     0.05200
C1155       C  0.27628641  0.86868426  0.49933239     0.27600
C1156       C  0.27464327  0.88782009  0.48089592    -0.12800
C1157       C  0.25039689  0.88291990  0.48675519     0.05700
C1158       C  0.22820772  0.85921164  0.51013827    -0.08800
C1159       C  0.22898782  0.83907469  0.52223829     0.06500
C1160       C  0.25318110  0.84358668  0.51553470    -0.13100
Br1161     Br  0.29775520  0.92205536  0.11096459    -0.05200
Br1162     Br  0.36670745  0.88231931  0.45838206     0.00400
Br1163     Br  0.24819716  0.91028773  0.47353485     0.00900
Br1164     Br  0.27020979  0.83488460  0.08348239    -0.03500
Br1165     Br  0.35935119  0.95006641  0.14413721     0.01000
Br1166     Br  0.30453874  0.84934563  0.42219350    -0.02800
Br1167     Br  0.30606296  0.92343552  0.46597204    -0.03700
Br1168     Br  0.19736818  0.80648692  0.55273350     0.00300
C1169       C  0.02949226  0.92475996  0.05089627     0.01700
C1170       C  0.05715084  0.94348841  0.04281297     0.04500
C1171       C  0.05690968  0.91016946  0.51968142    -0.11600
C1172       C  0.03891968  0.88268803  0.51742506     0.23800
C1173       C  0.03448064  0.89123076  0.05849801    -0.12100
C1174       C  0.01832835  0.89852476  0.05368963     0.05200
C1175       C  0.04927954  0.86798520  0.53105072     0.27600
C1176       C  0.04596227  0.84746312  0.49498418    -0.12800
C1177       C  0.05830999  0.83680502  0.50950467     0.05700
C1178       C  0.07861853  0.84981475  0.55050542    -0.08800
C1179       C  0.08228760  0.87021837  0.58582238     0.06500
C1180       C  0.09927277  0.91012276  0.08355777    -0.13100
Br1181     Br  0.01870276  0.85674972  0.08531430    -0.05200
Br1182     Br  0.07184853  0.97930439  0.03387890     0.00400
Br1183     Br  0.04743108  0.80412912  0.47307434     0.00900
Br1184     Br  0.10677257  0.93536183  0.14382514    -0.03500
Br1185     Br  0.48725812  0.88058958  0.05990014     0.01000
Br1186     Br  0.09427557  0.92797575  0.50565283    -0.02800
Br1187     Br  0.02844319  0.83505584  0.42090227    -0.03700
Br1188     Br  0.14352915  0.91606328  0.12974900     0.00300
C1189       C  0.07530152  0.63153869  0.28083333     0.01700
C1190       C  0.07082219  0.64542830  0.32166034     0.04500
C1191       C  0.08449462  0.67162158  0.31397001    -0.11600
C1192       C  0.10480046  0.68410217  0.26911696     0.23800
C1193       C  0.11177926  0.67109768  0.23242167    -0.12100
C1194       C  0.09643355  0.64422388  0.23741059     0.05200
C1195       C  0.11728516  0.71064202  0.25919065     0.27600
C1196       C  0.10168640  0.71581725  0.23516586    -0.12800
C1197       C  0.10812192  0.73989917  0.24631740     0.05700
C1198       C  0.13223571  0.75955885  0.27232256    -0.08800
C1199       C  0.14854390  0.75487170  0.29399144     0.06500
C1200       C  0.14052415  0.72976121  0.28898221    -0.13100
Br1201     Br  0.14146769  0.69012490  0.17477514    -0.05200
Br1202     Br  0.04810181  0.62946946  0.39116413     0.00400
Br1203     Br  0.08177355  0.74449888  0.23649627     0.00900
Br1204     Br  0.15932768  0.72083088  0.32820876    -0.03500
Br1205     Br  0.10463951  0.62534296  0.18555912     0.01000
Br1206     Br  0.07394767  0.68975399  0.36177142    -0.02800
Br1207     Br  0.06846356  0.68859998  0.19936567    -0.03700
Br1208     Br  0.18031003  0.78221476  0.33396074     0.00300
C1209       C  0.39302326  0.98449018  0.29420758     0.01700
C1210       C  0.38071753  0.99286511  0.26660805     0.04500
C1211       C  0.35221210  0.97582305  0.26083288    -0.11600
C1212       C  0.33450493  0.95027873  0.28587111     0.23800
C1213       C  0.34717826  0.94349027  0.31858428    -0.12100
C1214       C  0.37466786  0.96172610  0.32865759     0.05200
C1215       C  0.30343629  0.93279228  0.28398986     0.27600
C1216       C  0.28945596  0.94184706  0.30955521    -0.12800
C1217       C  0.26126537  0.92688504  0.30547322     0.05700
C1218       C  0.24535466  0.90155687  0.27884282    -0.08800
C1219       C  0.25885156  0.89203769  0.25476780     0.06500
C1220       C  0.28718002  0.90718308  0.25699301    -0.13100
Br1221     Br  0.32895754  0.90934172  0.35033915    -0.05200
Br1222     Br  0.40022447  0.02948544  0.26189661     0.00400
Br1223     Br  0.24424822  0.94167796  0.33380572     0.00900
Br1224     Br  0.30296228  0.89207503  0.22055765    -0.03500
Br1225     Br  0.38341784  0.96246979  0.40823623     0.01000
Br1226     Br  0.33803777  0.98567336  0.20906745    -0.02800
Br1227     Br  0.30851971  0.97436605  0.35455985    -0.03700
Br1228     Br  0.23797898  0.85745631  0.21921539     0.00300
C1229       C  0.11177927  0.88534837  0.30024033     0.01700
C1230       C  0.12540592  0.90848070  0.33526220     0.04500
C1231       C  0.11632164  0.92321447  0.34139280    -0.11600
C1232       C  0.09411940  0.91557996  0.31042539     0.23800
C1233       C  0.08195219  0.89346263  0.27193326    -0.12100
C1234       C  0.09001458  0.87794385  0.26841448     0.05200
C1235       C  0.08369461  0.93065900  0.31679457     0.27600
C1236       C  0.05723214  0.91847127  0.33750407    -0.12800
C1237       C  0.04618364  0.93120883  0.33537249     0.05700
C1238       C  0.06256236  0.95813504  0.32308445    -0.08800
C1239       C  0.08961274  0.97081634  0.30682505     0.06500
C1240       C  0.09941783  0.95674106  0.29868957    -0.13100
Br1241     Br  0.05516188  0.88499264  0.22070599    -0.05200
Br1242     Br  0.15773192  0.92116438  0.37158360     0.00400
Br1243     Br  0.00807663  0.90984920  0.34056513     0.00900
Br1244     Br  0.13402952  0.97311220  0.26021000    -0.03500
Br1245     Br  0.07012705  0.84578969  0.22176176     0.01000
Br1246     Br  0.13549307  0.95430902  0.39079108    -0.02800
Br1247     Br  0.03528832  0.88401259  0.36833766    -0.03700
Br1248     Br  0.11433083  0.00775018  0.30045587     0.00300
C1249       C  0.36117778  0.60266901  0.11849270     0.01700
C1250       C  0.38595193  0.61260460  0.09009762     0.04500
C1251       C  0.39503834  0.59785763  0.08714617    -0.11600
C1252       C  0.38041648  0.57376275  0.11708561     0.23800
C1253       C  0.35611980  0.56457739  0.14803815    -0.12100
C1254       C  0.34605671  0.57834444  0.14636526     0.05200
C1255       C  0.39166640  0.55950936  0.12008000     0.27600
C1256       C  0.37952033  0.53478909  0.09239028    -0.12800
C1257       C  0.39030524  0.52161080  0.09603386     0.05700
C1258       C  0.41403743  0.53304641  0.12638226    -0.08800
C1259       C  0.42704933  0.55894267  0.14979068     0.06500
C1260       C  0.41516613  0.57113857  0.14979725    -0.13100
Br1261     Br  0.33751581  0.53471551  0.19819894    -0.05200
Br1262     Br  0.40904169  0.64800650  0.06218537     0.00400
Br1263     Br  0.37163519  0.48755847  0.05837605     0.00900
Br1264     Br  0.43118068  0.60421165  0.19158038    -0.03500
Br1265     Br  0.31157100  0.56413586  0.18306899     0.01000
Br1266     Br  0.42873471  0.61217965  0.04565115    -0.02800
Br1267     Br  0.34782537  0.51874893  0.04893184    -0.03700
Br1268     Br  0.46195067  0.57973309  0.17937861     0.00300
C1269       C  0.42064560  0.75501948  0.15374332     0.01700
C1270       C  0.43451501  0.77130677  0.10412341     0.04500
C1271       C  0.44625325  0.79801482  0.10976441    -0.11600
C1272       C  0.44453153  0.80851764  0.16527860     0.23800
C1273       C  0.43579180  0.79322256  0.21586475    -0.12100
C1274       C  0.42676607  0.76756605  0.21068556     0.05200
C1275       C  0.44830131  0.83348476  0.17060763     0.27600
C1276       C  0.47028649  0.85613419  0.19791903    -0.12800
C1277       C  0.47351420  0.87955361  0.20075698     0.05700
C1278       C  0.45220859  0.87964102  0.18859127    -0.08800
C1279       C  0.42920512  0.85574249  0.16401590     0.06500
C1280       C  0.42774665  0.83334514  0.15435556    -0.13100
Br1281     Br  0.43332019  0.80607558  0.29194061    -0.05200
Br1282     Br  0.44170685  0.75856496  0.03213358     0.00400
Br1283     Br  0.50976788  0.91101306  0.20067909     0.00900
Br1284     Br  0.39574810  0.80066064  0.12500039    -0.03500
Br1285     Br  0.43104451  0.75406516  0.27856079     0.01000
Br1286     Br  0.46340015  0.81882153  0.04031607    -0.02800
Br1287     Br  0.49620747  0.85525591  0.23198750    -0.03700
Br1288     Br  0.39831561  0.85131044  0.14159577     0.00300
C1289       C  0.24454772  0.61200147  0.14801924     0.01700
C1290       C  0.22701753  0.61359885  0.18613564     0.04500
C1291       C  0.19891062  0.59540487  0.17962079    -0.11600
C1292       C  0.18768901  0.57713450  0.13129612     0.23800
C1293       C  0.20548013  0.57488694  0.09610993    -0.12100
C1294       C  0.23282063  0.59054902  0.10773722     0.05200
C1295       C  0.15785255  0.56125221  0.11876129     0.27600
C1296       C  0.13922696  0.53354479  0.12167531    -0.12800
C1297       C  0.11119388  0.51952655  0.11624139     0.05700
C1298       C  0.10037041  0.53247788  0.10641299    -0.08800
C1299       C  0.11981592  0.56025718  0.09938344     0.06500
C1300       C  0.14740699  0.57418970  0.10750904    -0.13100
Br1301     Br  0.19434261  0.55220411  0.02833428    -0.05200
Br1302     Br  0.24104730  0.64054174  0.24692179     0.00400
Br1303     Br  0.09237626  0.99063423  0.16510062     0.00900
Br1304     Br  0.17069120  0.61209019  0.10607111    -0.03500
Br1305     Br  0.25372129  0.58049164  0.07379124     0.01000
Br1306     Br  0.17498904  0.59419281  0.23834255    -0.02800
Br1307     Br  0.15189414  0.51440108  0.13636125    -0.03700
Br1308     Br  0.11050972  0.58135798  0.07762568     0.00300
C1309       C  0.46360889  0.58054162  0.37003856     0.01700
C1310       C  0.47604231  0.60396881  0.33843584     0.04500
C1311       C  0.46440166  0.61637427  0.33860910    -0.11600
C1312       C  0.44029126  0.60610661  0.37157796     0.23800
C1313       C  0.42742523  0.58232333  0.40173435    -0.12100
C1314       C  0.43832869  0.56914048  0.39851017     0.05200
C1315       C  0.42763315  0.61916479  0.37108487     0.27600
C1316       C  0.43536399  0.64386219  0.89205612    -0.12800
C1317       C  0.42453474  0.65662714  0.88912324     0.05700
C1318       C  0.40291437  0.64295334  0.37216346    -0.08800
C1319       C  0.38975957  0.61728165  0.34972201     0.06500
C1320       C  0.40246253  0.60590610  0.34655880    -0.13100
Br1321     Br  0.39412672  0.56683777  0.44669187    -0.05200
Br1322     Br  0.50872934  0.61920986  0.29140746     0.00400
Br1323     Br  0.44453957  0.69317865  0.91079846     0.00900
Br1324     Br  0.38507177  0.57225475  0.30721577    -0.03500
Br1325     Br  0.41101943  0.03514797  0.42148157     0.01000
Br1326     Br  0.48130589  0.64695179  0.29039193    -0.02800
Br1327     Br  0.46852879  0.66266388  0.92951827    -0.03700
Br1328     Br  0.35351844  0.59702917  0.32715635     0.00300
C1329       C  0.36572264  0.75072930  0.40347548     0.01700
C1330       C  0.35239911  0.76089631  0.93430845     0.04500
C1331       C  0.36001911  0.78407089  0.39136908    -0.11600
C1332       C  0.38733690  0.80468181  0.40076455     0.23800
C1333       C  0.40255814  0.79757135  0.41822454    -0.12100
C1334       C  0.39192820  0.77101658  0.41999794     0.05200
C1335       C  0.40047662  0.83374588  0.39417509     0.27600
C1336       C  0.40692834  0.84562585  0.33888530    -0.12800
C1337       C  0.41912803  0.87289419  0.33526838     0.05700
C1338       C  0.43326812  0.89122999  0.38365292    -0.08800
C1339       C  0.42219331  0.87740108  0.44000308     0.06500
C1340       C  0.40478942  0.84948577  0.44379676    -0.13100
Br1341     Br  0.43907592  0.82462353  0.43470565    -0.05200
Br1342     Br  0.31909869  0.73681529  0.97797965     0.00400
Br1343     Br  0.39845246  0.87746817  0.29064496     0.00900
Br1344     Br  0.42933741  0.83836215  0.99986995    -0.03500
Br1345     Br  0.41355530  0.76241067  0.44399329     0.01000
Br1346     Br  0.33660508  0.79217019  0.38114769    -0.02800
Br1347     Br  0.38986199  0.82195085  0.27269438    -0.03700
Br1348     Br  0.44132874  0.89383254  0.01149290     0.00300
C1349       C  0.11840767  0.54369236  0.40830499     0.01700
C1350       C  0.13859012  0.57129426  0.41251567     0.04500
C1351       C  0.16490714  0.58267144  0.39647984    -0.11600
C1352       C  0.17304863  0.56720867  0.39414529     0.23800
C1353       C  0.15371917  0.53982093  0.40120834    -0.12100
C1354       C  0.12649166  0.52805973  0.40410208     0.05200
C1355       C  0.20167501  0.57974293  0.38783495     0.27600
C1356       C  0.21115818  0.57044371  0.34450424    -0.12800
C1357       C  0.23627530  0.57733915  0.34989906     0.05700
C1358       C  0.25405595  0.59816149  0.38817861    -0.08800
C1359       C  0.24734437  0.61677706  0.92270188     0.06500
C1360       C  0.22101388  0.60648834  0.93106519    -0.13100
Br1361     Br  0.16396557  0.51779740  0.40504845    -0.05200
Br1362     Br  0.13169493  0.59473078  0.44362592     0.00400
Br1363     Br  0.24645420  0.55873609  0.30477271     0.00900
Br1364     Br  0.21172263  0.61837544  0.99975222    -0.03500
Br1365     Br  0.08699130  0.98961379  0.46961357     0.01000
Br1366     Br  0.18867522  0.61926811  0.37428167    -0.02800
Br1367     Br  0.19080930  0.54952920  0.27673892    -0.03700
Br1368     Br  0.27416974  0.65251838  0.94879985     0.00300
C1369       C  0.34362715  0.66391539  0.46455493     0.30400
C1370       C  0.34278227  0.66553825  0.81058165     0.30400
C1371       C  0.36568073  0.66602885  0.41778556    -0.05800
C1372       C  0.32074237  0.64060958  0.42187641    -0.06600
C1373       C  0.34568231  0.68561534  0.42621818    -0.06500
C1374       C  0.36538599  0.66923912  0.84840061    -0.05900
C1375       C  0.32083892  0.64156460  0.85312757    -0.06600
C1376       C  0.34281427  0.68610677  0.85781463    -0.06500
C1377       C  0.38009931  0.66161015  0.82778428    -0.31900
N1378       N  0.38741286  0.65575746  0.87412071     0.14600
C1379       C  0.38106326  0.65892587  0.42821216    -0.31900
H1380       H  0.38381433  0.65498243  0.47145935     0.16500
C1381       C  0.29600643  0.62145285  0.83777432    -0.30900
N1382       N  0.28101165  0.60832035  0.38759476     0.13300
C1383       C  0.29552778  0.61900673  0.43693566    -0.30900
C1384       C  0.34876957  0.70994664  0.84698622    -0.31200
N1385       N  0.35570520  0.72363342  0.39902290     0.13800
H1386       H  0.35249425  0.71777071  0.80305842     0.16500
C1387       C  0.35173305  0.70912814  0.44571788    -0.31200
H1388       H  0.35448751  0.71581509  0.49148193     0.16500
H1389       H  0.28715353  0.61387566  0.48169056     0.16500
H1390       H  0.38282312  0.65773253  0.78165146     0.16500
H1391       H  0.28926798  0.61767857  0.79351587     0.16500
C1392       C  0.34136599  0.66304299  0.71451692     0.30400
C1393       C  0.34223927  0.66298070  0.56021744     0.30400
C1394       C  0.34434311  0.64440100  0.66801926    -0.05800
C1395       C  0.31694581  0.65580366  0.67488046    -0.06600
C1396       C  0.36290933  0.68724075  0.67179955    -0.06500
C1397       C  0.34438105  0.64428096  0.59907236    -0.05900
C1398       C  0.31754431  0.65603887  0.60595525    -0.06600
C1399       C  0.36367508  0.68728934  0.60324721    -0.06500
C1400       C  0.34918650  0.62738027  0.57911499    -0.31900
N1401       N  0.35302629  0.61826910  0.62586642     0.14600
C1402       C  0.34988904  0.62783547  0.67835176    -0.31900
H1403       H  0.35227372  0.62353093  0.72148589     0.16500
C1404       C  0.29119356  0.64177649  0.59277046    -0.30900
N1405       N  0.27490776  0.63226271  0.64284440     0.13300
C1406       C  0.29000585  0.64078138  0.69122573    -0.30900
C1407       C  0.38613436  0.71176260  0.58846232    -0.31200
N1408       N  0.39738228  0.72622294  0.63895737     0.13800
H1409       H  0.39223928  0.71949602  0.54389596     0.16500
C1410       C  0.38423530  0.71164790  0.68811912    -0.31200
H1411       H  0.38856570  0.71910714  0.73355616     0.16500
H1412       H  0.28164511  0.63562707  0.73601045     0.16500
H1413       H  0.35069885  0.62256975  0.53297307     0.16500
H1414       H  0.28407734  0.63748940  0.54856673     0.16500
O1415       O  0.01769896  0.95122580  0.77366489    -0.74900
O1416       O  0.02906497  0.95933366  0.86769056    -0.54700
C1417       C  0.02779612  0.94890792  0.81700753     0.78800
O1418       O  0.06815942  0.60176330  0.83523594    -0.59500
O1419       O  0.53572594  0.59565206  0.79041137    -0.52600
C1420       C  0.05704236  0.60715725  0.80288494     0.70800
O1421       O  0.08871919  0.56420020  0.92717581    -0.74100
O1422       O  0.05871187  0.00019367  0.90056333    -0.54700
C1423       C  0.09225671  0.54758216  0.91459125     0.76800
O1424       O  0.01051147  0.01037546  0.67935373    -0.59200
O1425       O  0.54832344  0.57578527  0.73261056    -0.52400
C1426       C  0.55429987  0.56301283  0.70344171     0.73400
Zr1427     Zr  0.01934202  0.98860080  0.74572877     2.54700
O1428       O  0.08829669  0.54474424  0.73297132    -0.79800
O1429       O  0.52697343  0.96698318  0.70458683    -0.93200
Zr1430     Zr  0.05961476  0.56473822  0.87368088     2.64700
O1431       O  0.09785516  0.58523334  0.80391611    -0.98200
O1432       O  0.08047194  0.59467948  0.95868529    -0.80200
O1433       O  0.05414961  0.52530634  0.84806834    -0.83600
O1434       O  0.03323588  0.53878813  0.79857596    -2.18300
O1435       O  0.42765132  0.97990477  0.82329920    -0.67000
O1436       O  0.44666038  0.01631327  0.77020883    -0.51600
C1437       C  0.42502662  0.99480618  0.79685752     0.71800
O1438       O  0.45522509  0.49042283  0.93527748    -0.59900
O1439       O  0.96397183  0.95750579  0.92913342    -0.51900
C1440       C  0.44999491  0.96802666  0.42436449     0.73600
O1441       O  0.47345048  0.55933228  0.90904538    -0.71300
O1442       O  0.48229196  0.56784186  0.81080750    -0.50000
C1443       C  0.47251295  0.56878171  0.86132042     0.75000
O1444       O  0.44543010  0.92978462  0.84330295    -0.66600
O1445       O  0.47835677  0.93917647  0.89604509    -0.53800
C1446       C  0.45453792  0.92163988  0.87432639     0.73300
Zr1447     Zr  0.46127418  0.97332361  0.81377233     2.77500
O1448       O  0.41245900  0.94562154  0.83972854    -0.97400
O1449       O  0.44228901  0.93159224  0.76661005    -0.78200
Zr1450     Zr  0.49066472  0.53588583  0.93710345     2.70100
O1451       O  0.45108424  0.02375233  0.96293395    -0.79400
O1452       O  0.02761373  0.57878784  0.93568498    -0.98500
Zr1453     Zr  0.00880586  0.98001776  0.89509400     2.21500
Zr1454     Zr  0.50282351  0.54814186  0.78231849     2.11100
O1455       O  0.47230304  0.01505299  0.84207274    -2.47200
O1456       O  0.49219881  0.00083344  0.87772586    -0.79200
O1457       O  0.49455345  0.00311218  0.74303258    -0.71400
O1458       O  0.02664278  0.53286494  0.94094671    -2.32400
O1459       O  0.50061494  0.97614176  0.80302972    -2.28600
O1460       O  0.02137333  0.56264963  0.86386707    -0.73200
H1461       H  0.02191732  0.52669029  0.82626003     0.78800
H1462       H  0.03344543  0.53982807  0.97900043     0.79900
H1463       H  0.46033200  0.01803576  0.85844647     0.82100
H1464       H  0.49516246  0.95895057  0.79458145     0.79700
H1465       H  0.08813440  0.61208018  0.94369877     0.42800
H1466       H  0.02052915  0.58844505  0.94187782     0.41700
H1467       H  0.43618702  0.00612345  0.94880194     0.41400
H1468       H  0.40128341  0.93428166  0.80664813     0.39300
H1469       H  0.42453490  0.92395476  0.75345720     0.42500
H1470       H  0.51861987  0.95421705  0.73657456     0.37300
H1471       H  0.09773213  0.54158150  0.75855712     0.43400
H1472       H  0.10950103  0.60383485  0.81629296     0.39800
H1473       H  0.40675392  0.93188379  0.86723714     0.44700
H1474       H  0.54255872  0.96802381  0.69114158     0.43400
H1475       H  0.10749583  0.57888799  0.81411154     0.43600
H1476       H  0.54291659  0.58358510  0.47206522     0.43900
O1477       O  0.99287382  0.92483170  0.52934291    -0.74900
O1478       O  0.02525137  0.95137730  0.59158737    -0.53900
C1479       C  0.01267497  0.93089311  0.55696021     0.78800
O1480       O  0.02332833  0.55976875  0.55454612    -0.59500
O1481       O  0.48044318  0.54394113  0.55216875    -0.52600
C1482       C  0.00482407  0.56153708  0.54869215     0.70800
O1483       O  0.06648666  0.53450721  0.59776732    -0.74100
O1484       O  0.05532367  0.50051657  0.64837540    -0.54700
C1485       C  0.07314316  0.52276652  0.62333366     0.76800
O1486       O  0.92595159  0.92466116  0.98996610    -0.59200
O1487       O  0.41491369  0.45399997  0.97681632    -0.52400
C1488       C  0.42831013  0.44776076  0.95259589     0.73400
Zr1489     Zr  0.98140877  0.95291432  0.50345767     2.54700
O1490       O  0.01597312  0.46431563  0.96631015    -0.79800
O1491       O  0.49689076  0.92942616  0.96455418    -0.93200
Zr1492     Zr  0.02645042  0.52426403  0.55828142     2.64700
O1493       O  0.06513486  0.53565856  0.49377427    -0.98200
O1494       O  0.05408821  0.57150166  0.56208541    -0.80200
O1495       O  0.01903563  0.48373868  0.56189292    -0.83600
O1496       O  0.99111657  0.49178223  0.50270710    -2.18300
O1497       O  0.39417990  0.91656597  0.56844392    -0.67000
O1498       O  0.39522588  0.95085807  0.55364475    -0.51600
C1499       C  0.38265401  0.92613546  0.55952505     0.71800
O1500       O  0.51353080  0.54129084  0.67090576    -0.59900
O1501       O  0.05006424  0.02632257  0.70026919    -0.51900
C1502       C  0.52696031  0.03398738  0.66511874     0.73600
O1503       O  0.43751262  0.51890079  0.66422554    -0.71300
O1504       O  0.42848912  0.50946209  0.56757179    -0.50000
C1505       C  0.42698153  0.51901398  0.61727609     0.75000
O1506       O  0.43304796  0.90088460  0.68277658    -0.66600
O1507       O  0.47634464  0.92612383  0.70484012    -0.53800
C1508       C  0.45317267  0.90350457  0.70080449     0.73300
Zr1509     Zr  0.42451687  0.92998978  0.64487510     2.77500
O1510       O  0.38538063  0.91333480  0.71216574    -0.97400
O1511       O  0.39219512  0.88266451  0.63032990    -0.78200
Zr1512     Zr  0.46827307  0.50847375  0.68746003     2.70100
O1513       O  0.43294301  0.96260686  0.73286185    -0.79400
O1514       O  0.98252438  0.54895722  0.69165299    -0.98500
Zr1515     Zr  0.01350853  0.97916240  0.64289267     2.21500
Zr1516     Zr  0.45124891  0.49130042  0.54478560     2.11100
O1517       O  0.42647899  0.96850706  0.63367379    -2.47200
O1518       O  0.46218423  0.96531864  0.69109260    -0.79200
O1519       O  0.43562808  0.94465134  0.54697111    -0.71400
O1520       O  0.99346809  0.49383044  0.62450346    -2.32400
O1521       O  0.46132014  0.93340413  0.60183496    -2.28600
O1522       O  0.98613742  0.51566574  0.58453046    -0.73200
H1523       H  0.99690312  0.49966408  0.46696614     0.78800
H1524       H  0.98110151  0.47981246  0.60052651     0.79900
H1525       H  0.41084934  0.96666835  0.64740776     0.82100
H1526       H  0.45852749  0.91746358  0.60281397     0.79700
H1527       H  0.07240161  0.57872683  0.54985248     0.42800
H1528       H  0.98304789  0.55314737  0.65029305     0.41700
H1529       H  0.41523544  0.95795014  0.73114436     0.41400
H1530       H  0.37167835  0.90971054  0.68632641     0.39300
H1531       H  0.37454007  0.87785063  0.62525763     0.42500
H1532       H  0.48523908  0.91312402  0.94135808     0.37300
H1533       H  0.01867612  0.45111541  0.96235529     0.43400
H1534       H  0.08020215  0.55432280  0.49975045     0.39800
H1535       H  0.37859162  0.89586934  0.72453834     0.44700
H1536       H  0.51310027  0.94110597  0.93872079     0.43400
H1537       H  0.07162795  0.52622849  0.50445172     0.43600
H1538       H  0.50236732  0.56683573  0.70899297     0.43900
C1539       C  0.14802343  0.83862555  0.70898757     0.30400
C1540       C  0.14558703  0.83552485  0.86314616     0.30400
C1541       C  0.13122753  0.84345559  0.75666741    -0.05800
C1542       C  0.14029571  0.81476241  0.74645924    -0.06600
C1543       C  0.17454362  0.85794151  0.75188999    -0.06500
C1544       C  0.12905533  0.84074823  0.82476666    -0.05900
C1545       C  0.13868570  0.81284712  0.81544930    -0.06600
C1546       C  0.17324065  0.85658220  0.82106595    -0.06500
C1547       C  0.11498451  0.84905482  0.84530723    -0.31900
N1548       N  0.11242790  0.86011792  0.80112903     0.14600
C1549       C  0.12272731  0.85768065  0.74900347    -0.31900
H1550       H  0.12509991  0.86695557  0.70857709     0.16500
C1551       C  0.14282952  0.79536693  0.82392368    -0.30900
N1552       N  0.14736623  0.78786120  0.77066714     0.13300
C1553       C  0.14725330  0.80003882  0.72546348    -0.30900
C1554       C  0.19996197  0.87253410  0.83582406    -0.31200
N1555       N  0.21704872  0.88317377  0.78650063     0.13800
H1556       H  0.20655743  0.87547375  0.88038265     0.16500
C1557       C  0.20210243  0.87468125  0.73715216    -0.31200
H1558       H  0.21084588  0.88003260  0.69244524     0.16500
H1559       H  0.15126658  0.79753840  0.67907488     0.16500
H1560       H  0.10595297  0.84609717  0.88891792     0.16500
H1561       H  0.14287832  0.78861583  0.86651322     0.16500
C1562       C  0.14166441  0.83182805  0.95894116     0.30400
C1563       C  0.14119977  0.83257793  0.11337760     0.30400
C1564       C  0.13513552  0.84753500  0.00513915    -0.05800
C1565       C  0.12275789  0.80479647  0.00146620    -0.06600
C1566       C  0.16592554  0.84156342  0.99838616    -0.06500
C1567       C  0.13314658  0.84642005  0.07344578    -0.05900
C1568       C  0.12278497  0.80524030  0.07062559    -0.06600
C1569       C  0.16598326  0.84242662  0.06741349    -0.06500
C1570       C  0.12015505  0.85650048  0.09015569    -0.31900
N1571       N  0.11885089  0.86748739  0.04325464     0.14600
C1572       C  0.12897328  0.86337143  0.99338578    -0.31900
H1573       H  0.13220846  0.87207179  0.95157845     0.16500
C1574       C  0.10831008  0.77871613  0.08483899    -0.30900
N1575       N  0.09953074  0.76232000  0.03543792     0.13300
C1576       C  0.10830062  0.77786759  0.98624040    -0.30900
C1577       C  0.18660941  0.84313438  0.07908498    -0.31200
N1578       N  0.19802695  0.84246215  0.02727101     0.13800
H1579       H  0.19279230  0.84354564  0.12270169     0.16500
C1580       C  0.18551410  0.84043790  0.97974304    -0.31200
H1581       H  0.19089895  0.83874871  0.93397448     0.16500
H1582       H  0.10499176  0.77023064  0.94096189     0.16500
H1583       H  0.10948252  0.85343121  0.13176750     0.16500
H1584       H  0.10507189  0.77191917  0.12939333     0.16500
C1585       C  0.01491754  0.59103988  0.55255673     0.01700
C1586       C  0.03907871  0.61135733  0.58068670     0.04500
C1587       C  0.05347388  0.63872160  0.57284394    -0.11600
C1588       C  0.03667474  0.64411920  0.04337913     0.23800
C1589       C  0.01031202  0.62416792  0.02329709    -0.12100
C1590       C  0.99628811  0.59619089  0.02864379     0.05200
C1591       C  0.05267809  0.67500673  0.03911629     0.27600
C1592       C  0.04281218  0.68817728  0.06564116    -0.12800
C1593       C  0.05765733  0.71618183  0.06222760     0.05700
C1594       C  0.08384081  0.73310684  0.03591644    -0.08800
C1595       C  0.09421383  0.72050388  0.01122186     0.06500
C1596       C  0.07899300  0.69237246  0.01123164    -0.13100
Br1597     Br  0.99397569  0.63459400  0.98128633    -0.05200
Br1598     Br  0.04979885  0.60340793  0.64457388     0.00400
Br1599     Br  0.04788287  0.73400928  0.59674555     0.00900
Br1600     Br  0.09499796  0.67826640  0.96965607    -0.03500
Br1601     Br  0.46120817  0.57812577  0.01966629     0.01000
Br1602     Br  0.08683575  0.66305653  0.61025238    -0.02800
Br1603     Br  0.01454671  0.66988155  0.60336399    -0.03700
Br1604     Br  0.13025773  0.74237275  0.97837152     0.00300
C1605       C  0.35445666  0.90802306  0.54883834     0.01700
C1606       C  0.34536870  0.89583292  0.01009701     0.04500
C1607       C  0.31900661  0.88251061  0.99733730    -0.11600
C1608       C  0.30508162  0.89055168  0.02649255     0.23800
C1609       C  0.31083371  0.89558309  0.57103404    -0.12100
C1610       C  0.33754457  0.91106822  0.58335213     0.05200
C1611       C  0.27742895  0.87616128  0.01701790     0.27600
C1612       C  0.26927254  0.88952652  0.99460017    -0.12800
C1613       C  0.24296837  0.87878189  0.00277481     0.05700
C1614       C  0.22458575  0.85307016  0.02231650    -0.08800
C1615       C  0.23211865  0.83894787  0.04151445     0.06500
C1616       C  0.25900528  0.85109899  0.04189453    -0.13100
Br1617     Br  0.28787210  0.90124818  0.61586562    -0.05200
Br1618     Br  0.36438741  0.88397154  0.97524280     0.00400
Br1619     Br  0.23273651  0.90076835  0.99853948     0.00900
Br1620     Br  0.25485510  0.81657502  0.53576749    -0.03500
Br1621     Br  0.35137917  0.93745530  0.64555111     0.01000
Br1622     Br  0.30232830  0.85397002  0.93915982    -0.02800
Br1623     Br  0.29390833  0.92441816  0.96315090    -0.03700
Br1624     Br  0.20550118  0.80440332  0.07262948     0.00300
C1625       C  0.02153291  0.91397835  0.54220389     0.01700
C1626       C  0.04841917  0.92461691  0.54080520     0.04500
C1627       C  0.07353905  0.93604714  0.03906428    -0.11600
C1628       C  0.06233285  0.90961221  0.04785670     0.23800
C1629       C  0.01162237  0.87108255  0.51685816    -0.12100
C1630       C  0.00316423  0.88671157  0.52752787     0.05200
C1631       C  0.07879869  0.90040635  0.04421250     0.27600
C1632       C  0.07205754  0.87949071  0.00519879    -0.12800
C1633       C  0.08365684  0.86741011  0.00880854     0.05700
C1634       C  0.10542567  0.87859511  0.04427100    -0.08800
C1635       C  0.11340576  0.90021934  0.08142057     0.06500
C1636       C  0.06559737  0.87685477  0.58078533    -0.13100
Br1637     Br  0.98531415  0.83354385  0.50934018    -0.05200
Br1638     Br  0.07247090  0.95404573  0.58868347     0.00400
Br1639     Br  0.06675238  0.83316278  0.97310279     0.00900
Br1640     Br  0.06730929  0.90004011  0.64101746    -0.03500
Br1641     Br  0.45631970  0.86252644  0.55722811     0.01000
Br1642     Br  0.11107274  0.96278532  0.02385794    -0.02800
Br1643     Br  0.04627258  0.86613443  0.94734904    -0.03700
Br1644     Br  0.11275832  0.89235074  0.63422917     0.00300
C1645       C  0.07292365  0.63389762  0.79028130     0.01700
C1646       C  0.06819567  0.64923051  0.82430095     0.04500
C1647       C  0.08507879  0.67581407  0.81567901    -0.11600
C1648       C  0.10636827  0.68627872  0.77283213     0.23800
C1649       C  0.11255628  0.67137158  0.74276162    -0.12100
C1650       C  0.09604552  0.64494300  0.75296098     0.05200
C1651       C  0.12059815  0.71254592  0.75636266     0.27600
C1652       C  0.10589075  0.71867354  0.73161096    -0.12800
C1653       C  0.11439288  0.74362904  0.73998732     0.05700
C1654       C  0.13984816  0.76299677  0.76101312    -0.08800
C1655       C  0.15617650  0.75752971  0.77797120     0.06500
C1656       C  0.14580228  0.73164663  0.77906049    -0.13100
Br1657     Br  0.14266264  0.68686501  0.68561928    -0.05200
Br1658     Br  0.04019217  0.63424519  0.88561275     0.00400
Br1659     Br  0.08856238  0.74950060  0.73762980     0.00900
Br1660     Br  0.16377291  0.72224376  0.82047519    -0.03500
Br1661     Br  0.10644012  0.62495937  0.71752896     0.01000
Br1662     Br  0.07779320  0.69745864  0.85885833    -0.02800
Br1663     Br  0.07047123  0.69205906  0.70360536    -0.03700
Br1664     Br  0.19081846  0.78502666  0.80650088     0.00300
C1665       C  0.39462227  0.98283148  0.79959857     0.01700
C1666       C  0.38236881  0.99062351  0.76899794     0.04500
C1667       C  0.35395048  0.97364883  0.76203817    -0.11600
C1668       C  0.33587552  0.94911347  0.79122458     0.23800
C1669       C  0.34806952  0.94340577  0.82888692    -0.12100
C1670       C  0.37591602  0.96100825  0.83708028     0.05200
C1671       C  0.30476914  0.93161528  0.78937247     0.27600
C1672       C  0.29081730  0.94119333  0.81091717    -0.12800
C1673       C  0.26255180  0.92583123  0.80720118     0.05700
C1674       C  0.24648661  0.89949376  0.78669776    -0.08800
C1675       C  0.25986904  0.88926639  0.76825632     0.06500
C1676       C  0.28832157  0.90489283  0.76879794    -0.13100
Br1677     Br  0.32729779  0.91182980  0.87300162    -0.05200
Br1678     Br  0.39986233  0.02686249  0.77200089     0.00400
Br1679     Br  0.24558621  0.94130051  0.82724665     0.00900
Br1680     Br  0.30401374  0.88863949  0.74070960    -0.03500
Br1681     Br  0.38554422  0.96138665  0.91573475     0.01000
Br1682     Br  0.34015847  0.98401007  0.70984164    -0.02800
Br1683     Br  0.30987775  0.97473554  0.85153128    -0.03700
Br1684     Br  0.23863816  0.85321009  0.74239160     0.00300
C1685       C  0.09801155  0.87006530  0.80693002     0.01700
C1686       C  0.10769226  0.89323658  0.83897217     0.04500
C1687       C  0.09345423  0.90304414  0.84155793    -0.11600
C1688       C  0.07024205  0.89079614  0.80887205     0.23800
C1689       C  0.06072476  0.86687146  0.77881064    -0.12100
C1690       C  0.07384446  0.85619203  0.78017216     0.05200
C1691       C  0.05764515  0.90405618  0.80461827     0.27600
C1692       C  0.03094540  0.89247000  0.82479938    -0.12800
C1693       C  0.02110447  0.90665727  0.82508081     0.05700
C1694       C  0.03766754  0.93309574  0.80918571    -0.08800
C1695       C  0.06345899  0.94395319  0.78450746     0.06500
C1696       C  0.07323315  0.92966864  0.78164687    -0.13100
Br1697     Br  0.03120147  0.84811954  0.73131691    -0.05200
Br1698     Br  0.14067112  0.91156868  0.87812507     0.00400
Br1699     Br  0.98371577  0.88875887  0.83880192     0.00900
Br1700     Br  0.10855132  0.94585263  0.74565516    -0.03500
Br1701     Br  0.05866273  0.82173542  0.74680441     0.01000
Br1702     Br  0.10538291  0.93251727  0.89265405    -0.02800
Br1703     Br  0.00660707  0.85741954  0.85371976    -0.03700
Br1704     Br  0.08670828  0.97918708  0.75725110     0.00300
C1705       C  0.36163401  0.60263540  0.62005224     0.01700
C1706       C  0.38662634  0.61275563  0.59270935     0.04500
C1707       C  0.39527636  0.59759277  0.58807276    -0.11600
C1708       C  0.37941608  0.57238313  0.61390136     0.23800
C1709       C  0.35471467  0.56303366  0.64305928    -0.12100
C1710       C  0.34539323  0.57745460  0.64309141     0.05200
C1711       C  0.39008042  0.55748917  0.61596994     0.27600
C1712       C  0.37805974  0.53289780  0.58730121    -0.12800
C1713       C  0.38960119  0.52020862  0.58823365     0.05700
C1714       C  0.41343599  0.53166629  0.61829777    -0.08800
C1715       C  0.42540879  0.55678513  0.64454210     0.06500
C1716       C  0.41317818  0.56858695  0.64640142    -0.13100
Br1717     Br  0.33430358  0.53221989  0.68976988    -0.05200
Br1718     Br  0.40976076  0.64823662  0.56517813     0.00400
Br1719     Br  0.37214150  0.48729189  0.54660548     0.00900
Br1720     Br  0.42768083  0.59996744  0.69389641    -0.03500
Br1721     Br  0.30980086  0.56255554  0.67303811     0.01000
Br1722     Br  0.43009004  0.61305150  0.55054727    -0.02800
Br1723     Br  0.34542896  0.51624256  0.54708021    -0.03700
Br1724     Br  0.45922020  0.57689836  0.67778414     0.00300
C1725       C  0.41272243  0.75383258  0.64254188     0.01700
C1726       C  0.40154718  0.76490704  0.62450181     0.04500
C1727       C  0.41437431  0.79129164  0.63500689    -0.11600
C1728       C  0.43468287  0.80549203  0.67659706     0.23800
C1729       C  0.44525466  0.79373324  0.69697654    -0.12100
C1730       C  0.43543034  0.76867498  0.67603856     0.05200
C1731       C  0.44168541  0.83071548  0.70172141     0.27600
C1732       C  0.46724677  0.85456051  0.69362723    -0.12800
C1733       C  0.47173495  0.87852538  0.70120996     0.05700
C1734       C  0.44986750  0.87895565  0.71097110    -0.08800
C1735       C  0.42418169  0.85436929  0.72035632     0.06500
C1736       C  0.42105167  0.83124332  0.72332247    -0.13100
Br1737     Br  0.47034706  0.80875040  0.75839734    -0.05200
Br1738     Br  0.36529638  0.74303649  0.59977979     0.00400
Br1739     Br  0.50800996  0.90929388  0.68704804     0.00900
Br1740     Br  0.38691339  0.79888109  0.74767256    -0.03500
Br1741     Br  0.45075285  0.75299317  0.69881714     0.01000
Br1742     Br  0.40047265  0.80564542  0.59728716    -0.02800
Br1743     Br  0.49575897  0.85466062  0.66392269    -0.03700
Br1744     Br  0.39172996  0.84920325  0.71427793     0.00300
C1745       C  0.24591332  0.61414414  0.64326154     0.01700
C1746       C  0.23039400  0.61869517  0.68028655     0.04500
C1747       C  0.20241098  0.60196301  0.67694800    -0.11600
C1748       C  0.18951968  0.58180624  0.63305719     0.23800
C1749       C  0.20501542  0.57695267  0.59711001    -0.12100
C1750       C  0.23248173  0.59174755  0.60520427     0.05200
C1751       C  0.15993184  0.56594182  0.62607999     0.27600
C1752       C  0.14192654  0.53901053  0.63899711    -0.12800
C1753       C  0.11403384  0.52491708  0.63971536     0.05700
C1754       C  0.10314395  0.53718195  0.62493836    -0.08800
C1755       C  0.12174692  0.56459452  0.61306020     0.06500
C1756       C  0.14943045  0.57841060  0.61227894    -0.13100
Br1757     Br  0.18943240  0.55130100  0.53360666    -0.05200
Br1758     Br  0.24709591  0.64809487  0.73508821     0.00400
Br1759     Br  0.10808595  0.01280371  0.62845992     0.00900
Br1760     Br  0.17291249  0.61553572  0.59567846    -0.03500
Br1761     Br  0.25064266  0.57897192  0.57006165     0.01000
Br1762     Br  0.18136651  0.60599159  0.73429046    -0.02800
Br1763     Br  0.15528203  0.52101749  0.65796741    -0.03700
Br1764     Br  0.11125679  0.58612454  0.60672774     0.00300
C1765       C  0.45933654  0.58131755  0.86311271     0.01700
C1766       C  0.47073666  0.60429845  0.83025195     0.04500
C1767       C  0.45855090  0.61616846  0.83220437    -0.11600
C1768       C  0.43466217  0.60534749  0.86642898     0.23800
C1769       C  0.42252037  0.58185348  0.89666772    -0.12100
C1770       C  0.43422024  0.56950114  0.89322896     0.05200
C1771       C  0.42194239  0.61813592  0.86822326     0.27600
C1772       C  0.44038161  0.64487347  0.39480719    -0.12800
C1773       C  0.42838750  0.65679965  0.39348215     0.05700
C1774       C  0.39912664  0.64319260  0.86894986    -0.08800
C1775       C  0.38485818  0.61730134  0.84730279     0.06500
C1776       C  0.39677150  0.60523129  0.84398545    -0.13100
Br1777     Br  0.38933220  0.56594182  0.94250472    -0.05200
Br1778     Br  0.50260099  0.61990930  0.77935189     0.00400
Br1779     Br  0.44692565  0.69264571  0.41975632     0.00900
Br1780     Br  0.37843091  0.57141880  0.80485767    -0.03500
Br1781     Br  0.41748635  0.03464522  0.91703054     0.01000
Br1782     Br  0.47457965  0.64722718  0.78591880    -0.02800
Br1783     Br  0.47405825  0.66462673  0.43061250    -0.03700
Br1784     Br  0.34860216  0.59800255  0.82538538     0.00300
C1785       C  0.36487975  0.75153003  0.90254890     0.01700
C1786       C  0.34950192  0.75740940  0.39188158     0.04500
C1787       C  0.36465948  0.78802958  0.93561348    -0.11600
C1788       C  0.38918972  0.80604781  0.90375570     0.23800
C1789       C  0.40308508  0.79701948  0.88008259    -0.12100
C1790       C  0.39095608  0.77010608  0.87842168     0.05200
C1791       C  0.40271374  0.83507948  0.90168806     0.27600
C1792       C  0.39357971  0.84536519  0.86907708    -0.12800
C1793       C  0.40939375  0.87306486  0.86189507     0.05700
C1794       C  0.43499416  0.89134412  0.88763187    -0.08800
C1795       C  0.43791431  0.87985861  0.93420984     0.06500
C1796       C  0.42430455  0.85272902  0.93658477    -0.13100
Br1797     Br  0.43979938  0.82221680  0.85447839    -0.05200
Br1798     Br  0.31236092  0.72955042  0.38101619     0.00400
Br1799     Br  0.39108076  0.88416566  0.83195374     0.00900
Br1800     Br  0.38102724  0.83149047  0.51285954    -0.03500
Br1801     Br  0.41101456  0.75874651  0.84832540     0.01000
Br1802     Br  0.34989318  0.80105005  0.98756836    -0.02800
Br1803     Br  0.35753951  0.82149029  0.84314577    -0.03700
Br1804     Br  0.42608641  0.89255090  0.51591729     0.00300
C1805       C  0.12102886  0.55867488  0.91334029     0.01700
C1806       C  0.14249286  0.58590624  0.90369160     0.04500
C1807       C  0.16878812  0.59496030  0.89358859    -0.11600
C1808       C  0.17447339  0.57760575  0.89693851     0.23800
C1809       C  0.15379867  0.55143701  0.91188182    -0.12100
C1810       C  0.12786661  0.54285981  0.92318908     0.05200
C1811       C  0.20230682  0.58735163  0.89093448     0.27600
C1812       C  0.21060719  0.57775742  0.84542238    -0.12800
C1813       C  0.23527401  0.58329751  0.84751309     0.05700
C1814       C  0.25369345  0.60265773  0.88764951    -0.08800
C1815       C  0.24661973  0.61217121  0.41878029     0.06500
C1816       C  0.21995200  0.60073382  0.42604761    -0.13100
Br1817     Br  0.15968060  0.52605483  0.91278694    -0.05200
Br1818     Br  0.13855941  0.61285632  0.91168540     0.00400
Br1819     Br  0.24368977  0.56469638  0.79517576     0.00900
Br1820     Br  0.21028080  0.61378239  0.49175014    -0.03500
Br1821     Br  0.08856131  0.97763345  0.90086367     0.01000
Br1822     Br  0.19712778  0.63143757  0.87438883    -0.02800
Br1823     Br  0.18946949  0.55862411  0.77872494    -0.03700
Br1824     Br  0.27246772  0.64882453  0.43985340     0.00300
C1825       C  0.84167830  0.16083355  0.94867739     0.30400
C1826       C  0.84322993  0.16329389  0.29555642     0.30400
C1827       C  0.86339298  0.16264745  0.90187629    -0.05800
C1828       C  0.81869136  0.13785944  0.90562674    -0.06600
C1829       C  0.84446234  0.18302251  0.91053684    -0.06500
C1830       C  0.86549507  0.16584187  0.33380962    -0.05900
C1831       C  0.82014222  0.13979063  0.33875349    -0.06600
C1832       C  0.84521294  0.18494293  0.34301502    -0.06500
C1833       C  0.88482159  0.16370486  0.31423546    -0.31900
N1834       N  0.89514765  0.16131080  0.36128174     0.14600
C1835       C  0.87868417  0.15563402  0.91243081    -0.31900
H1836       H  0.88165156  0.15191866  0.95565201     0.16500
C1837       C  0.79411912  0.12144183  0.32592867    -0.30900
N1838       N  0.77864141  0.10617586  0.87209198     0.13300
C1839       C  0.79346311  0.11643996  0.92095036    -0.30900
C1840       C  0.85397520  0.21004812  0.33324422    -0.31200
N1841       N  0.85609785  0.22185888  0.88443725     0.13800
H1842       H  0.85833411  0.21848437  0.28989885     0.16500
C1843       C  0.85116863  0.20672063  0.93060941    -0.31200
H1844       H  0.85322725  0.21283382  0.97661613     0.16500
H1845       H  0.78527646  0.11146015  0.96597966     0.16500
H1846       H  0.88925134  0.16136332  0.26815762     0.16500
H1847       H  0.78649288  0.11760950  0.28266180     0.16500
C1848       C  0.84109027  0.16107865  0.19931312     0.30400
C1849       C  0.84052395  0.15966466  0.04450473     0.30400
C1850       C  0.84543750  0.14353424  0.15322276    -0.05800
C1851       C  0.81587429  0.15242307  0.16028543    -0.06600
C1852       C  0.86099321  0.18533204  0.15499915    -0.06500
C1853       C  0.84482800  0.14257316  0.08420948    -0.05900
C1854       C  0.81582646  0.15196959  0.09137962    -0.06600
C1855       C  0.86099886  0.18467207  0.08621171    -0.06500
C1856       C  0.85177195  0.12713705  0.06566391    -0.31900
N1857       N  0.85746395  0.12005306  0.11326740     0.14600
C1858       C  0.85373099  0.12950689  0.16488490    -0.31900
H1859       H  0.85708209  0.12645356  0.20852762     0.16500
C1860       C  0.78974940  0.13964115  0.07952169    -0.30900
N1861       N  0.77406828  0.13195889  0.13056757     0.13300
C1862       C  0.78952541  0.14025793  0.17825640    -0.30900
C1863       C  0.88133552  0.20951767  0.06945360    -0.31200
N1864       N  0.89212911  0.22462200  0.11892071     0.13800
H1865       H  0.88708198  0.21658430  0.02435765     0.16500
C1866       C  0.88055222  0.21061654  0.16934382    -0.31200
H1867       H  0.88559031  0.21874130  0.21409350     0.16500
H1868       H  0.78177194  0.13718013  0.22356610     0.16500
H1869       H  0.85273456  0.12134571  0.02019451     0.16500
H1870       H  0.78225706  0.13519624  0.03570134     0.16500
O1871       O  0.55968212  0.49075685  0.28800157    -0.74900
O1872       O  0.53281713  0.46523282  0.36309009    -0.54700
C1873       C  0.54960022  0.47081617  0.32048970     0.78800
O1874       O  0.56383796  0.10480875  0.33127058    -0.59500
O1875       O  0.03761261  0.09253007  0.27507603    -0.52600
C1876       C  0.55297242  0.10972831  0.29647232     0.70800
O1877       O  0.58739974  0.06743649  0.42092512    -0.74100
O1878       O  0.56822449  0.51178725  0.41990804    -0.54700
C1879       C  0.59072897  0.05048448  0.41073900     0.76800
O1880       O  0.56737555  0.55466735  0.21321479    -0.59200
O1881       O  0.04862587  0.07086790  0.21768799    -0.52400
C1882       C  0.05357885  0.05755935  0.18672224     0.73400
Zr1883     Zr  0.53952260  0.50948055  0.25205777     2.54700
O1884       O  0.58608248  0.04393526  0.24071944    -0.79800
O1885       O  0.02816196  0.46458825  0.20314905    -0.93200
Zr1886     Zr  0.55768057  0.06880884  0.37128470     2.64700
O1887       O  0.59505333  0.09126338  0.29813643    -0.98200
O1888       O  0.58088662  0.10270550  0.44863369    -0.80200
O1889       O  0.55191592  0.02894592  0.34720238    -0.83600
O1890       O  0.53121530  0.04266343  0.29688435    -2.18300
O1891       O  0.92855600  0.47774426  0.32208070    -0.67000
O1892       O  0.94770177  0.51478804  0.27161616    -0.51600
C1893       C  0.92611814  0.49336684  0.29832915     0.71800
O1894       O  0.95644681  0.99025808  0.42900780    -0.59900
O1895       O  0.47414628  0.46517441  0.43347595    -0.51900
C1896       C  0.95081297  0.46535255  0.92424749     0.73600
O1897       O  0.97700820  0.05970161  0.39790393    -0.71300
O1898       O  0.98641342  0.06777822  0.29969886    -0.50000
C1899       C  0.97707712  0.06970627  0.34988293     0.75000
O1900       O  0.94769748  0.42744106  0.33691085    -0.66600
O1901       O  0.98053144  0.43812406  0.39187868    -0.53800
C1902       C  0.95721025  0.42004059  0.36889945     0.73300
Zr1903     Zr  0.96184046  0.47055481  0.30986290     2.77500
O1904       O  0.91370734  0.44294143  0.34119739    -0.97400
O1905       O  0.94190758  0.42814312  0.26435775    -0.78200
Zr1906     Zr  0.99364687  0.03580949  0.42685087     2.70100
O1907       O  0.95238259  0.52291592  0.45867157    -0.79400
O1908       O  0.52628008  0.08139834  0.43502638    -0.98500
Zr1909     Zr  0.51915367  0.49026113  0.40214478     2.21500
Zr1910     Zr  0.00364466  0.04469324  0.27108552     2.11100
O1911       O  0.97376569  0.51227517  0.33926582    -2.47200
O1912       O  0.99263418  0.49836824  0.37423638    -0.79200
O1913       O  0.99546605  0.50058842  0.24082337    -0.71400
O1914       O  0.52573090  0.03653935  0.44082984    -2.32400
O1915       O  0.00179009  0.47426519  0.29986605    -2.28600
O1916       O  0.51845257  0.06540959  0.36472214    -0.73200
H1917       H  0.52031998  0.03125505  0.32697694     0.78800
H1918       H  0.53257802  0.04357116  0.47883367     0.79900
H1919       H  0.96186399  0.51497013  0.35725453     0.82100
H1920       H  0.99658559  0.45717555  0.29159703     0.79700
H1921       H  0.59208303  0.11940062  0.42707429     0.42800
H1922       H  0.51946708  0.09125133  0.44318591     0.41700
H1923       H  0.93742760  0.50506502  0.44551146     0.41400
H1924       H  0.90079945  0.43296035  0.30961377     0.39300
H1925       H  0.92337302  0.41916471  0.25473789     0.42500
H1926       H  0.01982158  0.45189199  0.23528269     0.37300
H1927       H  0.59354873  0.04560495  0.27907081     0.43400
H1928       H  0.60612818  0.11000727  0.30956397     0.39800
H1929       H  0.90916833  0.42822523  0.36322214     0.44700
H1930       H  0.04379234  0.46565091  0.19043486     0.43400
H1931       H  0.60593765  0.08604189  0.30600170     0.43600
H1932       H  0.03732278  0.07544963  0.95773913     0.43900
O1933       O  0.48396103  0.41971185  0.03577444    -0.74900
O1934       O  0.51243959  0.44206041  0.10848086    -0.53900
C1935       C  0.50116143  0.42335341  0.06899347     0.78800
O1936       O  0.52337133  0.06319180  0.05111979    -0.59500
O1937       O  0.97737209  0.03925786  0.04622639    -0.52600
C1938       C  0.50511056  0.06531313  0.04629756     0.70800
O1939       O  0.56496531  0.03776472  0.10439113    -0.74100
O1940       O  0.55303512  0.00252368  0.15051814    -0.54700
C1941       C  0.57127893  0.02525981  0.12810006     0.76800
O1942       O  0.43474432  0.43047219  0.48927144    -0.59200
O1943       O  0.91724004  0.95295955  0.47420542    -0.52400
C1944       C  0.93033786  0.94708982  0.44620359     0.73400
Zr1945     Zr  0.47530629  0.45011119  0.01310391     2.54700
O1946       O  0.51663923  0.97017490  0.46878695    -0.79800
O1947       O  0.99983504  0.42775699  0.45135462    -0.93200
Zr1948     Zr  0.52436288  0.02676560  0.06294439     2.64700
O1949       O  0.56320268  0.03725125  0.00005142    -0.98200
O1950       O  0.55422061  0.07308107  0.08139960    -0.80200
O1951       O  0.51647228  0.98616499  0.06498277    -0.83600
O1952       O  0.48884008  0.99508815  0.00637211    -2.18300
O1953       O  0.89482756  0.41370330  0.06906540    -0.67000
O1954       O  0.89677926  0.44821705  0.04967524    -0.51600
C1955       C  0.88388719  0.42382219  0.05961572     0.71800
O1956       O  0.01196398  0.03632688  0.15968607    -0.59900
O1957       O  0.52759987  0.51531499  0.17012972    -0.51900
C1958       C  0.02713528  0.53114186  0.16284712     0.73600
O1959       O  0.93718641  0.01651946  0.16285425    -0.71300
O1960       O  0.92713994  0.00729871  0.06689524    -0.50000
C1961       C  0.92688891  0.01745301  0.11666551     0.75000
O1962       O  0.93451055  0.39827281  0.18128822    -0.66600
O1963       O  0.97779334  0.42348973  0.20292070    -0.53800
C1964       C  0.95462175  0.40093269  0.19923512     0.73300
Zr1965     Zr  0.92554566  0.42704780  0.14466776     2.77500
O1966       O  0.88616439  0.41042951  0.21180103    -0.97400
O1967       O  0.89340845  0.37962115  0.13474813    -0.78200
Zr1968     Zr  0.96680427  0.00420040  0.18188624     2.70100
O1969       O  0.92141879  0.46065176  0.22301939    -0.79400
O1970       O  0.47756881  0.04956822  0.19159223    -0.98500
Zr1971     Zr  0.50047724  0.46919538  0.15746336     2.21500
Zr1972     Zr  0.94648830  0.98618392  0.04264378     2.11100
O1973       O  0.92725446  0.46535629  0.13237154    -2.47200
O1974       O  0.96381483  0.46226569  0.19019600    -0.79200
O1975       O  0.93574030  0.44083700  0.04612893    -0.71400
O1976       O  0.49031124  0.99548181  0.12768038    -2.32400
O1977       O  0.96164619  0.42932493  0.09986261    -2.28600
O1978       O  0.48393423  0.01841576  0.09026817    -0.73200
H1979       H  0.49379375  0.00353203  0.97153587     0.78800
H1980       H  0.47830884  0.98176018  0.10290227     0.79900
H1981       H  0.91174775  0.46451215  0.13924754     0.82100
H1982       H  0.95867793  0.41314056  0.09849535     0.79700
H1983       H  0.57172495  0.07890266  0.06522891     0.42800
H1984       H  0.47887689  0.05355322  0.14937833     0.41700
H1985       H  0.92699193  0.45138983  0.23759374     0.41400
H1986       H  0.87237489  0.40622336  0.18542002     0.39300
H1987       H  0.87635470  0.37473989  0.12315415     0.42500
H1988       H  0.99235974  0.40921907  0.45407650     0.37300
H1989       H  0.52492490  0.96518183  0.49248667     0.43400
H1990       H  0.57852591  0.05577079  0.00644766     0.39800
H1991       H  0.87952446  0.39319389  0.22560271     0.44700
H1992       H  0.01943816  0.43845880  0.44650805     0.43400
H1993       H  0.56906439  0.02734681  0.01144845     0.43600
H1994       H  0.00217909  0.06284961  0.19854294     0.43900
C1995       C  0.64973509  0.34430424  0.20848578     0.30400
C1996       C  0.64780905  0.34141861  0.36240230     0.30400
C1997       C  0.63273900  0.34873711  0.25640162    -0.05800
C1998       C  0.64246290  0.32069381  0.24606039    -0.06600
C1999       C  0.67637979  0.36408421  0.25097651    -0.06500
C2000       C  0.63086248  0.34619612  0.32464090    -0.05900
C2001       C  0.64111325  0.31896108  0.31484480    -0.06600
C2002       C  0.67526580  0.36279571  0.32007272    -0.06500
C2003       C  0.61833741  0.35599445  0.34595976    -0.31900
N2004       N  0.61622281  0.36735986  0.30187396     0.14600
C2005       C  0.62520858  0.36377453  0.24916972    -0.31900
H2006       H  0.62753808  0.37294788  0.20853298     0.16500
C2007       C  0.64402930  0.30071868  0.32372693    -0.30900
N2008       N  0.64752054  0.29242283  0.27047067     0.13300
C2009       C  0.64807385  0.30495154  0.22495691    -0.30900
C2010       C  0.70202442  0.37891794  0.33442209    -0.31200
N2011       N  0.71908202  0.38946762  0.28510817     0.13800
H2012       H  0.70862390  0.38175128  0.37861347     0.16500
C2013       C  0.70397413  0.38102316  0.23604637    -0.31200
H2014       H  0.71269333  0.38643654  0.19140644     0.16500
H2015       H  0.65101227  0.30159751  0.17841731     0.16500
H2016       H  0.61042507  0.35425131  0.39028493     0.16500
H2017       H  0.64367343  0.29376856  0.36640889     0.16500
C2018       C  0.64388010  0.33725439  0.45772631     0.30400
C2019       C  0.64370968  0.33734538  0.61220162     0.30400
C2020       C  0.63775172  0.35288636  0.50488511    -0.05800
C2021       C  0.62479042  0.31009326  0.49944582    -0.06600
C2022       C  0.66813408  0.34672957  0.49619809    -0.06500
C2023       C  0.63572950  0.35136257  0.57314107    -0.05900
C2024       C  0.62485233  0.31008040  0.56856155    -0.06600
C2025       C  0.66853638  0.34728886  0.56506005    -0.06500
C2026       C  0.62369559  0.36224102  0.59086216    -0.31900
N2027       N  0.62350643  0.37424801  0.54460145     0.14600
C2028       C  0.63308521  0.36989257  0.49423389    -0.31900
H2029       H  0.63725330  0.37947162  0.45307808     0.16500
C2030       C  0.60943630  0.28316616  0.58126897    -0.30900
N2031       N  0.60027383  0.26714905  0.53100884     0.13300
C2032       C  0.60943975  0.28326082  0.48281189    -0.30900
C2033       C  0.69065286  0.35000453  0.57438478    -0.31200
N2034       N  0.70242400  0.35097432  0.52115714     0.13800
H2035       H  0.69747765  0.35036999  0.61705032     0.16500
C2036       C  0.68888007  0.34796024  0.47503906    -0.31200
H2037       H  0.69379781  0.34625282  0.42890346     0.16500
H2038       H  0.60585365  0.27607017  0.43716939     0.16500
H2039       H  0.61307620  0.35930128  0.63257885     0.16500
H2040       H  0.60594867  0.27582209  0.62537082     0.16500
C2041       C  0.51564067  0.09512439  0.04840280     0.01700
C2042       C  0.54246285  0.11697330  0.06350144     0.04500
C2043       C  0.55131785  0.14285478  0.07423012    -0.11600
C2044       C  0.53967132  0.14924164  0.53899857     0.23800
C2045       C  0.51271089  0.12911598  0.52272129    -0.12100
C2046       C  0.49817907  0.10128176  0.53240015     0.05200
C2047       C  0.55526657  0.18001779  0.53342180     0.27600
C2048       C  0.54550527  0.19271686  0.56294653    -0.12800
C2049       C  0.55928816  0.22048016  0.55889315     0.05700
C2050       C  0.58481120  0.23789439  0.52953475    -0.08800
C2051       C  0.59505313  0.22570165  0.50075214     0.06500
C2052       C  0.58079762  0.19769364  0.50211296    -0.13100
Br2053     Br  0.49599170  0.13920698  0.48063331    -0.05200
Br2054     Br  0.57289514  0.11980690  0.03721764     0.00400
Br2055     Br  0.54579195  0.24000267  0.09655090     0.00900
Br2056     Br  0.59766662  0.18447542  0.46051872    -0.03500
Br2057     Br  0.96529148  0.08095721  0.50920283     0.01000
Br2058     Br  0.58227979  0.16607578  0.11846507    -0.02800
Br2059     Br  0.51091028  0.17545973  0.10491661    -0.03700
Br2060     Br  0.62960851  0.24796931  0.46012032     0.00300
C2061       C  0.85574673  0.40704442  0.05374091     0.01700
C2062       C  0.84596191  0.39558348  0.51192523     0.04500
C2063       C  0.81969019  0.38364465  0.50128050    -0.11600
C2064       C  0.80751343  0.39334505  0.53151941     0.23800
C2065       C  0.81628906  0.40294561  0.07388639    -0.12100
C2066       C  0.84166476  0.41355139  0.08845152     0.05200
C2067       C  0.78043939  0.38117176  0.52121839     0.27600
C2068       C  0.77448497  0.39555979  0.49422002    -0.12800
C2069       C  0.74824278  0.38535281  0.49423342     0.05700
C2070       C  0.72842888  0.35982162  0.51415405    -0.08800
C2071       C  0.73421371  0.34447251  0.53484802     0.06500
C2072       C  0.76043206  0.35594116  0.54324548    -0.13100
Br2073     Br  0.79892637  0.41609090  0.11361462    -0.05200
Br2074     Br  0.86358373  0.38331020  0.47094698     0.00400
Br2075     Br  0.73986699  0.40773454  0.47599178     0.00900
Br2076     Br  0.75982914  0.32979239  0.08062086    -0.03500
Br2077     Br  0.85768804  0.43785793  0.15452082     0.01000
Br2078     Br  0.80053243  0.35436476  0.44544597    -0.02800
Br2079     Br  0.80181682  0.43055304  0.46531928    -0.03700
Br2080     Br  0.70590584  0.30837474  0.55328985     0.00300
C2081       C  0.51077318  0.40760783  0.05254467     0.01700
C2082       C  0.53649056  0.42053783  0.02844140     0.04500
C2083       C  0.58490174  0.44913725  0.54691906    -0.11600
C2084       C  0.57473677  0.42327884  0.55771748     0.23800
C2085       C  0.50453433  0.36652198  0.03410254    -0.12100
C2086       C  0.49387275  0.38005179  0.04775506     0.05200
C2087       C  0.59135436  0.41445953  0.54895385     0.27600
C2088       C  0.58352184  0.39416625  0.50690021    -0.12800
C2089       C  0.59209971  0.37937041  0.51005415     0.05700
C2090       C  0.61275972  0.38784082  0.54677519    -0.08800
C2091       C  0.62329528  0.41004275  0.58390665     0.06500
C2092       C  0.56559106  0.38146802  0.08022814    -0.13100
Br2093     Br  0.48091536  0.32871536  0.03143077    -0.05200
Br2094     Br  0.55242791  0.45284790  0.99508945     0.00400
Br2095     Br  0.57235926  0.34526285  0.47199429     0.00900
Br2096     Br  0.56999894  0.40828191  0.13344255    -0.03500
Br2097     Br  0.95954946  0.36100971  0.05458446     0.01000
Br2098     Br  0.62196665  0.47548965  0.52521941    -0.02800
Br2099     Br  0.55902848  0.38473603  0.44787142    -0.03700
Br2100     Br  0.61222086  0.39662699  0.13578498     0.00300
C2101       C  0.56865018  0.13653864  0.28294676     0.01700
C2102       C  0.56546306  0.15221305  0.32031721     0.04500
C2103       C  0.58182990  0.17870566  0.31092690    -0.11600
C2104       C  0.60331164  0.18939571  0.26866843     0.23800
C2105       C  0.60921520  0.17430392  0.23797774    -0.12100
C2106       C  0.59092388  0.14742744  0.24311744     0.05200
C2107       C  0.61824306  0.21615189  0.25445514     0.27600
C2108       C  0.60437753  0.22342413  0.23000140    -0.12800
C2109       C  0.61356047  0.24856598  0.23972396     0.05700
C2110       C  0.63890286  0.26714697  0.26169403    -0.08800
C2111       C  0.65401387  0.26063024  0.28081497     0.06500
C2112       C  0.64293742  0.23450131  0.28028200    -0.13100
Br2113     Br  0.64061321  0.19002319  0.18477060    -0.05200
Br2114     Br  0.54076347  0.13783870  0.38784433     0.00400
Br2115     Br  0.58866591  0.25576801  0.23868243     0.00900
Br2116     Br  0.65890445  0.22371959  0.32465053    -0.03500
Br2117     Br  0.59655201  0.12616564  0.19463554     0.01000
Br2118     Br  0.57366255  0.19973806  0.35352342    -0.02800
Br2119     Br  0.56894773  0.19838376  0.20096142    -0.03700
Br2120     Br  0.68763220  0.28714008  0.31538306     0.00300
C2121       C  0.89585703  0.48182527  0.30068189     0.01700
C2122       C  0.88443873  0.49005628  0.26824908     0.04500
C2123       C  0.85614141  0.47366731  0.25996234    -0.11600
C2124       C  0.83730044  0.44901345  0.28829268     0.23800
C2125       C  0.84861448  0.44232923  0.32608290    -0.12100
C2126       C  0.87641442  0.45934676  0.33603978     0.05200
C2127       C  0.80629156  0.43286771  0.28652995     0.27600
C2128       C  0.79399782  0.44391197  0.30985846    -0.12800
C2129       C  0.76592328  0.43020925  0.30745932     0.05700
C2130       C  0.74837775  0.40422978  0.28475951    -0.08800
C2131       C  0.76010834  0.39256051  0.26390107     0.06500
C2132       C  0.78831429  0.40635644  0.26454300    -0.13100
Br2133     Br  0.82643830  0.40980945  0.36688785    -0.05200
Br2134     Br  0.90463752  0.52657326  0.26032467     0.00400
Br2135     Br  0.75144832  0.44764897  0.33301888     0.00900
Br2136     Br  0.80118917  0.38769269  0.23468220    -0.03500
Br2137     Br  0.88529299  0.45671962  0.41312557     0.01000
Br2138     Br  0.84344874  0.48422371  0.20502074    -0.02800
Br2139     Br  0.81542854  0.47753369  0.35028697    -0.03700
Br2140     Br  0.73674968  0.35686997  0.23506464     0.00300
C2141       C  0.60337397  0.37879119  0.30803688     0.01700
C2142       C  0.61541932  0.40327184  0.33586810     0.04500
C2143       C  0.60333367  0.41511460  0.33534383    -0.11600
C2144       C  0.58047190  0.40368253  0.30204306     0.23800
C2145       C  0.56839775  0.37838018  0.27636616    -0.12100
C2146       C  0.57900039  0.36559723  0.28285374     0.05200
C2147       C  0.57020771  0.41869201  0.29548751     0.27600
C2148       C  0.54463634  0.40929170  0.31838281    -0.12800
C2149       C  0.53753177  0.42574504  0.32188810     0.05700
C2150       C  0.55621059  0.45252083  0.30666255    -0.08800
C2151       C  0.58094083  0.46124371  0.27914667     0.06500
C2152       C  0.58751914  0.44429364  0.27212968    -0.13100
Br2153     Br  0.53894878  0.36031855  0.22772738    -0.05200
Br2154     Br  0.64853899  0.42053553  0.37351745     0.00400
Br2155     Br  0.50071873  0.40978116  0.34169903     0.00900
Br2156     Br  0.62121384  0.45689067  0.23249520    -0.03500
Br2157     Br  0.56055198  0.32950950  0.25731656     0.01000
Br2158     Br  0.61738194  0.44603920  0.38376258    -0.02800
Br2159     Br  0.51856708  0.37422080  0.34793915    -0.03700
Br2160     Br  0.60792267  0.49754825  0.25966415     0.00300
C2161       C  0.86597996  0.10442238  0.11005317     0.01700
C2162       C  0.89048648  0.11363843  0.08161086     0.04500
C2163       C  0.89862522  0.09809119  0.07891533    -0.11600
C2164       C  0.88360496  0.07435728  0.11053631     0.23800
C2165       C  0.85941933  0.06595445  0.14091665    -0.12100
C2166       C  0.85007285  0.08016554  0.13751778     0.05200
C2167       C  0.89387055  0.05926831  0.11371596     0.27600
C2168       C  0.88039760  0.03399855  0.08799236    -0.12800
C2169       C  0.89086096  0.02042771  0.08954470     0.05700
C2170       C  0.91488772  0.03149973  0.11805513    -0.08800
C2171       C  0.92870070  0.05751721  0.14069589     0.06500
C2172       C  0.91809863  0.07083784  0.14008703    -0.13100
Br2173     Br  0.83913429  0.03626496  0.19120622    -0.05200
Br2174     Br  0.91370413  0.14844515  0.05078849     0.00400
Br2175     Br  0.87198590  0.98702807  0.04942566     0.00900
Br2176     Br  0.93762404  0.10573517  0.17509503    -0.03500
Br2177     Br  0.81488992  0.06627738  0.16891381     0.01000
Br2178     Br  0.93080093  0.11009113  0.03297159    -0.02800
Br2179     Br  0.84780835  0.01811958  0.04827666    -0.03700
Br2180     Br  0.96294050  0.07684029  0.17157157     0.00300
C2181       C  0.90943449  0.25219618  0.12045028     0.01700
C2182       C  0.90019043  0.26524152  0.10364031     0.04500
C2183       C  0.91394323  0.29144247  0.11945950    -0.11600
C2184       C  0.93413637  0.30341612  0.16157448     0.23800
C2185       C  0.94339098  0.28982899  0.17747352    -0.12100
C2186       C  0.93217699  0.26505142  0.15287284     0.05200
C2187       C  0.94199429  0.32795079  0.19288334     0.27600
C2188       C  0.96787563  0.35161152  0.18781107    -0.12800
C2189       C  0.97284663  0.37569831  0.19838800     0.05700
C2190       C  0.95118047  0.37636407  0.20928295    -0.08800
C2191       C  0.92538475  0.35187137  0.21875514     0.06500
C2192       C  0.92184645  0.32848067  0.21799414    -0.13100
Br2193     Br  0.96796558  0.30135556  0.23846575    -0.05200
Br2194     Br  0.86537564  0.24600629  0.07187921     0.00400
Br2195     Br  0.00934566  0.40640674  0.18557734     0.00900
Br2196     Br  0.88782341  0.29586004  0.24161853    -0.03500
Br2197     Br  0.94482981  0.24620709  0.17069035     0.01000
Br2198     Br  0.90091962  0.30824353  0.08978971    -0.02800
Br2199     Br  0.99619446  0.35158000  0.15800710    -0.03700
Br2200     Br  0.89306257  0.34718306  0.21746162     0.00300
C2201       C  0.74505503  0.11446482  0.13270015     0.01700
C2202       C  0.73032930  0.12000152  0.16965367     0.04500
C2203       C  0.70216580  0.10288322  0.17021020    -0.11600
C2204       C  0.68815370  0.08162988  0.12899433     0.23800
C2205       C  0.70304544  0.07614909  0.09243787    -0.12100
C2206       C  0.73078959  0.09126085  0.09735079     0.05200
C2207       C  0.65829237  0.06605542  0.12403622     0.27600
C2208       C  0.63973772  0.03923452  0.13803620    -0.12800
C2209       C  0.61178302  0.02574813  0.14086435     0.05700
C2210       C  0.60133686  0.03882936  0.12927952    -0.08800
C2211       C  0.62060944  0.06620104  0.11867133     0.06500
C2212       C  0.64810556  0.07894838  0.11177612    -0.13100
Br2213     Br  0.68654005  0.04981992  0.03063451    -0.05200
Br2214     Br  0.74844544  0.15169593  0.21735830     0.00400
Br2215     Br  0.58765620  0.48500554  0.11792776     0.00900
Br2216     Br  0.67195077  0.11523280  0.08824886    -0.03500
Br2217     Br  0.74860816  0.07851563  0.05932330     0.01000
Br2218     Br  0.68252050  0.10822996  0.22868114    -0.02800
Br2219     Br  0.65257558  0.02067350  0.15466540    -0.03700
Br2220     Br  0.61172186  0.08910464  0.12730467     0.00300
C2221       C  0.96601573  0.08444084  0.35103448     0.01700
C2222       C  0.97916912  0.10778815  0.31798775     0.04500
C2223       C  0.96911036  0.12180248  0.31954958    -0.11600
C2224       C  0.94552180  0.11281401  0.35323159     0.23800
C2225       C  0.93174945  0.08902549  0.38373114    -0.12100
C2226       C  0.94135508  0.07463717  0.38120357     0.05200
C2227       C  0.93368865  0.12669495  0.35236636     0.27600
C2228       C  0.93730062  0.14180700  0.88677492    -0.12800
C2229       C  0.92540134  0.15371255  0.88393118     0.05700
C2230       C  0.90870176  0.15027964  0.35673989    -0.08800
C2231       C  0.89557900  0.12472363  0.33395808     0.06500
C2232       C  0.90863099  0.11379988  0.32773915    -0.13100
Br2233     Br  0.89865517  0.07525928  0.42776304    -0.05200
Br2234     Br  0.01058788  0.12090686  0.26720009     0.00400
Br2235     Br  0.94214066  0.18845795  0.91695028     0.00900
Br2236     Br  0.89112140  0.08060345  0.28645623    -0.03500
Br2237     Br  0.91546075  0.53106211  0.41258327     0.01000
Br2238     Br  0.98737977  0.15302631  0.27303538    -0.02800
Br2239     Br  0.96979557  0.16076115  0.92770127    -0.03700
Br2240     Br  0.85837558  0.10340514  0.31809483     0.00300
C2241       C  0.87141845  0.25139674  0.39202664     0.01700
C2242       C  0.84963000  0.25546552  0.87820878     0.04500
C2243       C  0.87177641  0.28750224  0.43069927    -0.11600
C2244       C  0.89620346  0.30577080  0.39880438     0.23800
C2245       C  0.90987787  0.29690413  0.37202989    -0.12100
C2246       C  0.89779844  0.27001431  0.36999554     0.05200
C2247       C  0.90902247  0.33451718  0.39708584     0.27600
C2248       C  0.89773214  0.34378135  0.36906044    -0.12800
C2249       C  0.91244195  0.37121318  0.36137173     0.05700
C2250       C  0.93877644  0.39013106  0.38297669    -0.08800
C2251       C  0.94432723  0.37970860  0.42631295     0.06500
C2252       C  0.93229828  0.35295088  0.42686944    -0.13100
Br2253     Br  0.94578862  0.32199722  0.34070469    -0.05200
Br2254     Br  0.81330971  0.22769300  0.85994450     0.00400
Br2255     Br  0.89236633  0.38090001  0.33475349     0.00900
Br2256     Br  0.87435168  0.32691367  0.00268548    -0.03500
Br2257     Br  0.91811700  0.25853265  0.34410790     0.01000
Br2258     Br  0.85750578  0.29970520  0.48735288    -0.02800
Br2259     Br  0.86104626  0.31890303  0.34707078    -0.03700
Br2260     Br  0.92124524  0.38758695  0.01582267     0.00300
C2261       C  0.61926500  0.06115012  0.41163210     0.01700
C2262       C  0.64106291  0.08810389  0.40075821     0.04500
C2263       C  0.66726749  0.09667879  0.39197482    -0.11600
C2264       C  0.67258249  0.07904417  0.39701109     0.23800
C2265       C  0.65113861  0.05288370  0.41193297    -0.12100
C2266       C  0.62545970  0.04502380  0.42366517     0.05200
C2267       C  0.70049719  0.08823088  0.38983965     0.27600
C2268       C  0.70767789  0.07699061  0.34592252    -0.12800
C2269       C  0.73240851  0.08243996  0.34638074     0.05700
C2270       C  0.75227961  0.10350673  0.38087835    -0.08800
C2271       C  0.74524983  0.11093476  0.90786423     0.06500
C2272       C  0.71874805  0.09958933  0.91963623    -0.13100
Br2273     Br  0.65464884  0.02583516  0.40879094    -0.05200
Br2274     Br  0.63739892  0.11525161  0.40398445     0.00400
Br2275     Br  0.73934413  0.06165415  0.29898084     0.00900
Br2276     Br  0.71116751  0.11319826  0.98832702    -0.03500
Br2277     Br  0.59916580  0.49030596  0.40461622     0.01000
Br2278     Br  0.69554325  0.13260756  0.36901305    -0.02800
Br2279     Br  0.68608143  0.05755474  0.27986728    -0.03700
Br2280     Br  0.77191644  0.14734681  0.92989514     0.00300
C2281       C  0.84303499  0.16280628  0.44978181     0.30400
C2282       C  0.84245736  0.16185967  0.79472406     0.30400
C2283       C  0.86534531  0.16563787  0.40270638    -0.05800
C2284       C  0.82005970  0.13946970  0.40731346    -0.06600
C2285       C  0.84497794  0.18436789  0.41183017    -0.06500
C2286       C  0.86382021  0.16305446  0.83279530    -0.05900
C2287       C  0.81910337  0.13850228  0.83726025    -0.06600
C2288       C  0.84494533  0.18376699  0.84195184    -0.06500
C2289       C  0.87976203  0.15655205  0.81323644    -0.31900
N2290       N  0.88787406  0.15172593  0.86040455     0.14600
C2291       C  0.88425446  0.16310331  0.41344856    -0.31900
H2292       H  0.88810518  0.16027580  0.45672094     0.16500
C2293       C  0.79420210  0.11771262  0.82227137    -0.30900
N2294       N  0.77868577  0.11161389  0.37660763     0.13300
C2295       C  0.79402199  0.12064902  0.42418904    -0.30900
C2296       C  0.85231925  0.20838803  0.83194878    -0.31200
N2297       N  0.85854742  0.22367687  0.38585092     0.13800
H2298       H  0.85572719  0.21643483  0.78853473     0.16500
C2299       C  0.85323901  0.20852677  0.43207204    -0.31200
H2300       H  0.85706611  0.21537504  0.47793990     0.16500
H2301       H  0.78632164  0.11685674  0.46940394     0.16500
H2302       H  0.88367983  0.15361697  0.76727747     0.16500
H2303       H  0.78695172  0.11296196  0.77816996     0.16500
C2304       C  0.84087485  0.16020731  0.69913678     0.30400
C2305       C  0.84166247  0.16188006  0.54562714     0.30400
C2306       C  0.84590888  0.14348533  0.65060425    -0.05800
C2307       C  0.81576631  0.15186962  0.66094384    -0.06600
C2308       C  0.86089962  0.18548536  0.65834019    -0.06500
C2309       C  0.84606245  0.14421913  0.58207278    -0.05900
C2310       C  0.81611931  0.15274815  0.59250724    -0.06600
C2311       C  0.86185953  0.18673793  0.59040018    -0.06500
C2312       C  0.85269304  0.12877308  0.56009442    -0.31900
N2313       N  0.85705886  0.11945325  0.60560029     0.14600
C2314       C  0.85272534  0.12768525  0.65893975    -0.31900
H2315       H  0.85469187  0.12261846  0.70157316     0.16500
C2316       C  0.78985587  0.14093762  0.58162431    -0.30900
N2317       N  0.77377639  0.13177240  0.63252860     0.13300
C2318       C  0.78927400  0.13893855  0.67957726    -0.30900
C2319       C  0.88423818  0.21213699  0.57882042    -0.31200
N2320       N  0.89670598  0.22533461  0.63041001     0.13800
H2321       H  0.89013611  0.22010966  0.53489444     0.16500
C2322       C  0.88184785  0.20938802  0.67705076    -0.31200
H2323       H  0.88516115  0.21446973  0.72346932     0.16500
H2324       H  0.78154195  0.13430093  0.72491141     0.16500
H2325       H  0.85459396  0.12479495  0.51346830     0.16500
H2326       H  0.78247277  0.13822062  0.53843654     0.16500
O2327       O  0.56347704  0.49856142  0.80200406    -0.74900
O2328       O  0.53767288  0.47334047  0.87946699    -0.54700
C2329       C  0.55610430  0.48070480  0.83891479     0.78800
O2330       O  0.57170926  0.10154090  0.82338399    -0.59500
O2331       O  0.02909240  0.08252193  0.78067421    -0.52600
C2332       C  0.55975993  0.10769221  0.79656731     0.70800
O2333       O  0.59024621  0.05308412  0.88355741    -0.74100
O2334       O  0.56891466  0.51622090  0.92819017    -0.54700
C2335       C  0.58923488  0.03471922  0.90402054     0.76800
O2336       O  0.56919480  0.55941052  0.72524872    -0.59200
O2337       O  0.01601440  0.04659484  0.65908154    -0.52400
C2338       C  0.02576489  0.03461222  0.66859989     0.73400
Zr2339     Zr  0.54103704  0.51472985  0.76564154     2.54700
O2340       O  0.58605958  0.03786426  0.72569355    -0.79800
O2341       O  0.02928943  0.46760673  0.72447532    -0.93200
Zr2342     Zr  0.56217664  0.06367024  0.86229299     2.64700
O2343       O  0.60120018  0.09022094  0.79460586    -0.98200
O2344       O  0.58285293  0.09066100  0.95009808    -0.80200
O2345       O  0.55373095  0.02318213  0.83657103    -0.83600
O2346       O  0.53263660  0.03803610  0.79174691    -2.18300
O2347       O  0.92825910  0.47952167  0.81491548    -0.67000
O2348       O  0.94802253  0.51667970  0.76454976    -0.51600
C2349       C  0.92607768  0.49489239  0.78913403     0.71800
O2350       O  0.94923886  0.98101101  0.93289620    -0.59900
O2351       O  0.47074176  0.46752338  0.92596767    -0.51900
C2352       C  0.95515971  0.46240227  0.42769687     0.73600
O2353       O  0.97261094  0.05268989  0.90120598    -0.71300
O2354       O  0.97173171  0.05446105  0.80190676    -0.50000
C2355       C  0.96805733  0.05991113  0.85489957     0.75000
O2356       O  0.94560564  0.42864774  0.83943642    -0.66600
O2357       O  0.97748537  0.43821396  0.89718776    -0.53800
C2358       C  0.95381367  0.42021703  0.87271397     0.73300
Zr2359     Zr  0.96230517  0.47332120  0.81260570     2.77500
O2360       O  0.91260649  0.44174754  0.83244817    -0.97400
O2361       O  0.94821337  0.43272543  0.76499870    -0.78200
Zr2362     Zr  0.98762747  0.02638988  0.92111122     2.70100
O2363       O  0.94686666  0.52188453  0.95992119    -0.79400
O2364       O  0.52962061  0.07890168  0.92580520    -0.98500
Zr2365     Zr  0.51799685  0.49430333  0.91465482     2.21500
Zr2366     Zr  0.99149463  0.03452765  0.76560823     2.11100
O2367       O  0.97216200  0.51440399  0.84164947    -2.47200
O2368       O  0.99146899  0.50119695  0.88126096    -0.79200
O2369       O  0.99750896  0.50439727  0.74505520    -0.71400
O2370       O  0.53011267  0.03367047  0.93357586    -2.32400
O2371       O  0.00218569  0.47745253  0.80820658    -2.28600
O2372       O  0.52386517  0.06248074  0.85936872    -0.73200
H2373       H  0.52189206  0.02637035  0.82068640     0.78800
H2374       H  0.53529129  0.04132258  0.97230108     0.79900
H2375       H  0.95946498  0.51674094  0.85531985     0.82100
H2376       H  0.99640305  0.46014236  0.80065622     0.79700
H2377       H  0.59592818  0.10848626  0.93413449     0.42800
H2378       H  0.52221911  0.08767662  0.94075131     0.41700
H2379       H  0.93288464  0.50617722  0.93755150     0.41400
H2380       H  0.90141975  0.43573193  0.79799414     0.39300
H2381       H  0.93188915  0.42605695  0.74555944     0.42500
H2382       H  0.02198905  0.45575264  0.75833274     0.37300
H2383       H  0.59416252  0.03895276  0.76250587     0.43400
H2384       H  0.61438174  0.10596354  0.81849428     0.39800
H2385       H  0.90727344  0.42478746  0.84436184     0.44700
H2386       H  0.04470159  0.46852033  0.71150759     0.43400
H2387       H  0.60878753  0.08101039  0.78880139     0.43600
H2388       H  0.04347856  0.08933473  0.45310148     0.43900
O2389       O  0.50206134  0.43371099  0.54684072    -0.74900
O2390       O  0.52910520  0.46074934  0.61858139    -0.53900
C2391       C  0.52263375  0.44389926  0.57716873     0.78800
O2392       O  0.51678465  0.05788570  0.55366669    -0.59500
O2393       O  0.97861324  0.04212041  0.54323491    -0.52600
C2394       C  0.49889637  0.06077287  0.55099597     0.70800
O2395       O  0.56184597  0.03463716  0.59105853    -0.74100
O2396       O  0.55058357  0.99832949  0.62872511    -0.54700
C2397       C  0.56886603  0.02186227  0.60939192     0.76800
O2398       O  0.42998940  0.43208255  0.97731223    -0.59200
O2399       O  0.91089728  0.94693044  0.98674364    -0.52400
C2400       C  0.92280312  0.93905585  0.96281162     0.73400
Zr2401     Zr  0.48209810  0.45389073  0.51916407     2.54700
O2402       O  0.52500368  0.98910898  0.99196357    -0.79800
O2403       O  0.97198116  0.40502803  0.96050821    -0.93200
Zr2404     Zr  0.51814827  0.02098689  0.55997253     2.64700
O2405       O  0.54534693  0.01864850  0.48870737    -0.98200
O2406       O  0.55403098  0.06806494  0.56552502    -0.80200
O2407       O  0.50655193  0.98002775  0.55673090    -0.83600
O2408       O  0.48292033  0.99026058  0.50458947    -2.18300
O2409       O  0.89202613  0.41920303  0.59436138    -0.67000
O2410       O  0.90275105  0.45327896  0.54059595    -0.51600
C2411       C  0.88630105  0.43034956  0.56334858     0.71800
O2412       O  0.03122838  0.04575478  0.73620225    -0.59900
O2413       O  0.52985408  0.52021102  0.68057321    -0.51900
C2414       C  0.03208702  0.53712821  0.66869789     0.73600
O2415       O  0.94672223  0.02327379  0.66301833    -0.71300
O2416       O  0.93263377  0.01127996  0.56870895    -0.50000
C2417       C  0.93403313  0.02251442  0.61831926     0.75000
O2418       O  0.93853812  0.40199159  0.67588718    -0.66600
O2419       O  0.98146808  0.42562142  0.69976702    -0.53800
C2420       C  0.95819990  0.40329021  0.69158800     0.73300
Zr2421     Zr  0.93077133  0.43146067  0.63748157     2.77500
O2422       O  0.89218968  0.40914202  0.70916030    -0.97400
O2423       O  0.90434477  0.39306891  0.57273895    -0.78200
Zr2424     Zr  0.97766329  0.01114453  0.68439298     2.70100
O2425       O  0.93795996  0.46443114  0.72678346    -0.79400
O2426       O  0.47953515  0.04753117  0.69487507    -0.98500
Zr2427     Zr  0.50487222  0.47431687  0.66952809     2.21500
Zr2428     Zr  0.95030950  0.98937612  0.53972023     2.11100
O2429       O  0.93346505  0.47027676  0.62593234    -2.47200
O2430       O  0.96515558  0.46651180  0.69742013    -0.79200
O2431       O  0.94979051  0.45129168  0.55040275    -0.71400
O2432       O  0.48350331  0.98834626  0.61965108    -2.32400
O2433       O  0.96945474  0.43613849  0.60338237    -2.28600
O2434       O  0.47942501  0.01431743  0.58994099    -0.73200
H2435       H  0.49156213  0.00021251  0.47139677     0.78800
H2436       H  0.46948342  0.97503352  0.59563708     0.79900
H2437       H  0.91768698  0.46845509  0.63715360     0.82100
H2438       H  0.96715699  0.42041370  0.59893048     0.79700
H2439       H  0.56729346  0.07265896  0.53274413     0.42800
H2440       H  0.47738222  0.05115012  0.65514233     0.41700
H2441       H  0.91978078  0.45822033  0.72173222     0.41400
H2442       H  0.88244437  0.41590550  0.70360989     0.39300
H2443       H  0.88746321  0.37997362  0.59527931     0.42500
H2444       H  0.95807458  0.38573691  0.96380281     0.37300
H2445       H  0.53287569  0.98060909  0.97734855     0.43400
H2446       H  0.56090263  0.03691748  0.49372311     0.39800
H2447       H  0.88015001  0.39080054  0.69461298     0.44700
H2448       H  0.97882783  0.40674862  0.91923173     0.43400
H2449       H  0.55136929  0.00959615  0.50459246     0.43600
H2450       H  0.99576911  0.06456008  0.71298875     0.43900
C2451       C  0.64788102  0.34258722  0.70833592     0.30400
C2452       C  0.64749738  0.34266139  0.86285091     0.30400
C2453       C  0.63295813  0.35030971  0.75570393    -0.05800
C2454       C  0.63854101  0.31885771  0.74876584    -0.06600
C2455       C  0.67515219  0.36167101  0.74873180    -0.06500
C2456       C  0.63250276  0.35005668  0.82474682    -0.05900
C2457       C  0.63815233  0.31853063  0.81758167    -0.06600
C2458       C  0.67485099  0.36188879  0.81790665    -0.06500
C2459       C  0.62726154  0.36693807  0.84386582    -0.31900
N2460       N  0.62414132  0.37665373  0.79731513     0.14600
C2461       C  0.62929487  0.36840096  0.74598541    -0.31900
H2462       H  0.63473324  0.37863750  0.70544705     0.16500
C2463       C  0.63918020  0.29895652  0.82806665    -0.30900
N2464       N  0.64032910  0.28851724  0.77560897     0.13300
C2465       C  0.64092498  0.30059672  0.72901770    -0.30900
C2466       C  0.70184103  0.37967592  0.83057471    -0.31200
N2467       N  0.71824449  0.38899936  0.78006104     0.13800
H2468       H  0.70926899  0.38546465  0.87458147     0.16500
C2469       C  0.70247528  0.37870097  0.73173739    -0.31200
H2470       H  0.71042972  0.38293457  0.68620593     0.16500
H2471       H  0.64331702  0.29635507  0.68286736     0.16500
H2472       H  0.62947533  0.37481139  0.88829574     0.16500
H2473       H  0.64047871  0.29344483  0.87099010     0.16500
C2474       C  0.64411861  0.33911120  0.95893332     0.30400
C2475       C  0.64527289  0.34017399  0.11289091     0.30400
C2476       C  0.63150994  0.34916773  0.00634877    -0.05800
C2477       C  0.62930216  0.31240968  0.00075918    -0.06600
C2478       C  0.66996800  0.35394960  0.99743846    -0.06500
C2479       C  0.63145134  0.34923077  0.07514075    -0.05900
C2480       C  0.63000235  0.31296992  0.06955717    -0.06600
C2481       C  0.67068331  0.35473747  0.06605731    -0.06500
C2482       C  0.61042530  0.34933540  0.09376333    -0.31900
N2483       N  0.59970392  0.35129061  0.04678639     0.14600
C2484       C  0.61154176  0.35021715  0.99562728    -0.31900
H2485       H  0.60408688  0.34759201  0.95266782     0.16500
C2486       C  0.61379874  0.28634485  0.08422026    -0.30900
N2487       N  0.60347651  0.26988556  0.03510753     0.13300
C2488       C  0.61243960  0.28540564  0.98594445    -0.30900
C2489       C  0.69425054  0.36012428  0.07570176    -0.31200
N2490       N  0.70680327  0.36214096  0.02303317     0.13800
H2491       H  0.70011806  0.35877164  0.11783843     0.16500
C2492       C  0.69248104  0.35784508  0.97702933    -0.31200
H2493       H  0.69644594  0.35391406  0.93205556     0.16500
H2494       H  0.60659342  0.27749561  0.94135232     0.16500
H2495       H  0.60188571  0.34597528  0.13861750     0.16500
H2496       H  0.60978309  0.27945518  0.12891646     0.16500
C2497       C  0.51021221  0.09104142  0.55394238     0.01700
C2498       C  0.53618554  0.11172916  0.57493472     0.04500
C2499       C  0.55063376  0.13931414  0.56635908    -0.11600
C2500       C  0.54015439  0.15233289  0.04676666     0.23800
C2501       C  0.51496228  0.13176902  0.02307630    -0.12100
C2502       C  0.50173005  0.10411432  0.03104756     0.05200
C2503       C  0.55580328  0.18288275  0.04030801     0.27600
C2504       C  0.54555228  0.19589165  0.06441433    -0.12800
C2505       C  0.56086051  0.22400342  0.06245088     0.05700
C2506       C  0.58697403  0.24065925  0.03520787    -0.08800
C2507       C  0.59696567  0.22788056  0.00967637     0.06500
C2508       C  0.58226037  0.20001702  0.01321869    -0.13100
Br2509     Br  0.50123219  0.14099372  0.96860876    -0.05200
Br2510     Br  0.54979044  0.10395180  0.63225130     0.00400
Br2511     Br  0.54214359  0.23468442  0.59071323     0.00900
Br2512     Br  0.59971211  0.18611911  0.97992996    -0.03500
Br2513     Br  0.96590696  0.07745309  0.00949261     0.01000
Br2514     Br  0.58557696  0.16378337  0.59738118    -0.02800
Br2515     Br  0.51434971  0.17268057  0.61606124    -0.03700
Br2516     Br  0.63181967  0.24924980  0.97020138     0.00300
C2517       C  0.85895035  0.41619308  0.55381331     0.01700
C2518       C  0.84372701  0.38766847  0.00843338     0.04500
C2519       C  0.81761300  0.37593300  0.99555818    -0.11600
C2520       C  0.80453324  0.38440296  0.02703225     0.23800
C2521       C  0.82049950  0.41352261  0.57470885    -0.12100
C2522       C  0.84595230  0.42386250  0.58780039     0.05200
C2523       C  0.77863881  0.37486625  0.01104233     0.27600
C2524       C  0.77679264  0.39234785  0.98381206    -0.12800
C2525       C  0.75268063  0.38773492  0.98731013     0.05700
C2526       C  0.73052828  0.36534420  0.01581376    -0.08800
C2527       C  0.73181224  0.34678692  0.03871419     0.06500
C2528       C  0.75623582  0.35190259  0.03767662    -0.13100
Br2529     Br  0.80402924  0.42745371  0.61482173    -0.05200
Br2530     Br  0.86321941  0.37872829  0.96075350     0.00400
Br2531     Br  0.75098948  0.41416773  0.96204624     0.00900
Br2532     Br  0.76839434  0.33836716  0.59077819    -0.03500
Br2533     Br  0.86309559  0.44718296  0.65443446     0.01000
Br2534     Br  0.80041755  0.34977785  0.93277861    -0.02800
Br2535     Br  0.80819267  0.42581353  0.95582106    -0.03700
Br2536     Br  0.70045682  0.31506284  0.07327618     0.00300
C2537       C  0.54017647  0.43642905  0.56390036     0.01700
C2538       C  0.56763777  0.45564852  0.55148966     0.04500
C2539       C  0.54773623  0.40800552  0.01661220    -0.11600
C2540       C  0.53251279  0.38097807  0.02577679     0.23800
C2541       C  0.54710592  0.40422987  0.57027471    -0.12100
C2542       C  0.53002954  0.41047979  0.56758826     0.05200
C2543       C  0.54684959  0.36993212  0.03499483     0.27600
C2544       C  0.54436464  0.35022689  0.99773728    -0.12800
C2545       C  0.55905364  0.34153725  0.00800024     0.05700
C2546       C  0.57963389  0.35502867  0.04882076    -0.08800
C2547       C  0.58264897  0.37511611  0.08484889     0.06500
C2548       C  0.61173571  0.42254270  0.58738811    -0.13100
Br2549     Br  0.53238940  0.36930764  0.59176116    -0.05200
Br2550     Br  0.58053347  0.49039472  0.53658863     0.00400
Br2551     Br  0.55014264  0.31035111  0.96688325     0.00900
Br2552     Br  0.62343507  0.44961241  0.64661190    -0.03500
Br2553     Br  0.99355016  0.37954014  0.56950457     0.01000
Br2554     Br  0.58455760  0.42853793  0.99054616    -0.02800
Br2555     Br  0.52426175  0.33710316  0.92695772    -0.03700
Br2556     Br  0.65366899  0.42326483  0.62928382     0.00300
C2557       C  0.57551889  0.13519850  0.78670830     0.01700
C2558       C  0.57147500  0.15003353  0.82552742     0.04500
C2559       C  0.58657281  0.17657264  0.81699218    -0.11600
C2560       C  0.60717108  0.18834814  0.77241794     0.23800
C2561       C  0.61356563  0.17428786  0.73828241    -0.12100
C2562       C  0.59761627  0.14742140  0.74563201     0.05200
C2563       C  0.61980371  0.21490190  0.75850080     0.27600
C2564       C  0.60373309  0.21955204  0.73449965    -0.12800
C2565       C  0.60999682  0.24372525  0.74408250     0.05700
C2566       C  0.63421875  0.26399403  0.76884672    -0.08800
C2567       C  0.65174080  0.26018285  0.78710925     0.06500
C2568       C  0.64393083  0.23503095  0.78429863    -0.13100
Br2569     Br  0.64339216  0.19173975  0.68065908    -0.05200
Br2570     Br  0.54727282  0.13482325  0.89356503     0.00400
Br2571     Br  0.58322118  0.24769595  0.73413045     0.00900
Br2572     Br  0.66404245  0.22752932  0.82294674    -0.03500
Br2573     Br  0.60712355  0.12810516  0.70158203     0.01000
Br2574     Br  0.57714674  0.19618590  0.86194112    -0.02800
Br2575     Br  0.56966793  0.19135589  0.70325482    -0.03700
Br2576     Br  0.68512920  0.28893691  0.81919039     0.00300
C2577       C  0.89590153  0.48361389  0.79154626     0.01700
C2578       C  0.88404555  0.49265102  0.76418598     0.04500
C2579       C  0.85550359  0.47639917  0.75872624    -0.11600
C2580       C  0.83697513  0.45091654  0.78398268     0.23800
C2581       C  0.84922267  0.44319519  0.81531477    -0.12100
C2582       C  0.87682172  0.46072658  0.82540349     0.05200
C2583       C  0.80580341  0.43432547  0.78240841     0.27600
C2584       C  0.79277958  0.44480782  0.80537691    -0.12800
C2585       C  0.76462194  0.43061511  0.80169015     0.05700
C2586       C  0.74766909  0.40462820  0.77891294    -0.08800
C2587       C  0.76008465  0.39369573  0.75780385     0.06500
C2588       C  0.78838703  0.40816541  0.75815856    -0.13100
Br2589     Br  0.83051834  0.40859902  0.84524168    -0.05200
Br2590     Br  0.90439550  0.52921133  0.75618274     0.00400
Br2591     Br  0.74902457  0.44724199  0.82513459     0.00900
Br2592     Br  0.80223862  0.39145517  0.72033588    -0.03500
Br2593     Br  0.88434965  0.46059646  0.90561581     0.01000
Br2594     Br  0.84264131  0.48662872  0.70405606    -0.02800
Br2595     Br  0.81302537  0.47843622  0.84589698    -0.03700
Br2596     Br  0.73755405  0.35800142  0.72880899     0.00300
C2597       C  0.61797633  0.39444973  0.80098362     0.01700
C2598       C  0.63271909  0.41765054  0.83585222     0.04500
C2599       C  0.62429423  0.43298332  0.84498617    -0.11600
C2600       C  0.60335223  0.42746248  0.81236408     0.23800
C2601       C  0.59093575  0.40599680  0.77175527    -0.12100
C2602       C  0.59650693  0.38841704  0.77025454     0.05200
C2603       C  0.59253473  0.44222842  0.82311952     0.27600
C2604       C  0.56572318  0.42862538  0.84255656    -0.12800
C2605       C  0.55379683  0.44065828  0.84424726     0.05700
C2606       C  0.56896622  0.46768265  0.83340523    -0.08800
C2607       C  0.59627472  0.48167206  0.81573848     0.06500
C2608       C  0.60766851  0.46883011  0.80899118    -0.13100
Br2609     Br  0.56556267  0.40012372  0.71903928    -0.05200
Br2610     Br  0.66532517  0.42935949  0.86853616     0.00400
Br2611     Br  0.51583762  0.41809035  0.85386977     0.00900
Br2612     Br  0.64368620  0.48720226  0.77760198    -0.03500
Br2613     Br  0.57248783  0.35461785  0.73217942     0.01000
Br2614     Br  0.64095559  0.46036484  0.90483518    -0.02800
Br2615     Br  0.54443122  0.39261483  0.86538130    -0.03700
Br2616     Br  0.61847066  0.51844760  0.79996222     0.00300
C2617       C  0.86608945  0.10400204  0.59886407     0.01700
C2618       C  0.89154814  0.11456914  0.57328321     0.04500
C2619       C  0.90139999  0.10043643  0.57320680    -0.11600
C2620       C  0.88602877  0.07551186  0.59990505     0.23800
C2621       C  0.85999692  0.06473927  0.62279099    -0.12100
C2622       C  0.84998123  0.07855534  0.62075173     0.05200
C2623       C  0.89757955  0.06149479  0.60632294     0.27600
C2624       C  0.88702853  0.03731681  0.57735446    -0.12800
C2625       C  0.89747175  0.02404597  0.58571286     0.05700
C2626       C  0.92069188  0.03560067  0.61889748    -0.08800
C2627       C  0.93238699  0.06119431  0.64258287     0.06500
C2628       C  0.91993805  0.07283746  0.64037478    -0.13100
Br2629     Br  0.83776723  0.03166268  0.66038835    -0.05200
Br2630     Br  0.91351614  0.14903243  0.54061193     0.00400
Br2631     Br  0.87923838  0.99002020  0.54838324     0.00900
Br2632     Br  0.93442923  0.10542630  0.68283464    -0.03500
Br2633     Br  0.81354814  0.06238662  0.64578315     0.01000
Br2634     Br  0.93657004  0.11617415  0.53808798    -0.02800
Br2635     Br  0.85903982  0.02288026  0.52251114    -0.03700
Br2636     Br  0.96747956  0.08353318  0.66901777     0.00300
C2637       C  0.91983816  0.25262720  0.63841712     0.01700
C2638       C  0.93424771  0.26990608  0.59066758     0.04500
C2639       C  0.94811302  0.29689149  0.60145438    -0.11600
C2640       C  0.94585131  0.30611313  0.65852329     0.23800
C2641       C  0.93670480  0.28941879  0.70674288    -0.12100
C2642       C  0.92707771  0.26372344  0.69637114     0.05200
C2643       C  0.94986247  0.33119546  0.66725931     0.27600
C2644       C  0.97130837  0.35293104  0.69799862    -0.12800
C2645       C  0.97459586  0.37645678  0.70501752     0.05700
C2646       C  0.95457402  0.37780007  0.68830434    -0.08800
C2647       C  0.93236563  0.35489236  0.65907093     0.06500
C2648       C  0.93040178  0.33225942  0.64847046    -0.13100
Br2649     Br  0.93659474  0.30072231  0.78689632    -0.05200
Br2650     Br  0.94076229  0.25819456  0.51581542     0.00400
Br2651     Br  0.00958301  0.40719613  0.72343189     0.00900
Br2652     Br  0.89881355  0.30078861  0.61436359    -0.03500
Br2653     Br  0.93371878  0.24831164  0.75457399     0.01000
Br2654     Br  0.97296152  0.32034025  0.54096196    -0.02800
Br2655     Br  0.99739191  0.35097336  0.72670816    -0.03700
Br2656     Br  0.90254216  0.35168846  0.63370986     0.00300
C2657       C  0.74451407  0.11354769  0.63392164     0.01700
C2658       C  0.72838714  0.11636132  0.67439313     0.04500
C2659       C  0.70007142  0.09900855  0.67129493    -0.11600
C2660       C  0.68711458  0.07989058  0.62484595     0.23800
C2661       C  0.70357744  0.07675459  0.58679784    -0.12100
C2662       C  0.73119540  0.09186631  0.59421361     0.05200
C2663       C  0.65697524  0.06420131  0.61625772     0.27600
C2664       C  0.63812893  0.03646960  0.61965853    -0.12800
C2665       C  0.61010107  0.02268274  0.61513052     0.05700
C2666       C  0.59942606  0.03602576  0.60957006    -0.08800
C2667       C  0.61882214  0.06392872  0.60531316     0.06500
C2668       C  0.64664585  0.07737753  0.60694205    -0.13100
Br2669     Br  0.68996429  0.05330603  0.52068170    -0.05200
Br2670     Br  0.74456558  0.14389575  0.73408449     0.00400
Br2671     Br  0.59102428  0.49197573  0.67369885     0.00900
Br2672     Br  0.67075293  0.11489500  0.59696060    -0.03500
Br2673     Br  0.75010034  0.08037279  0.55521787     0.01000
Br2674     Br  0.67862103  0.10083476  0.73198244    -0.02800
Br2675     Br  0.65045275  0.01686952  0.63240380    -0.03700
Br2676     Br  0.60894159  0.08597458  0.60088398     0.00300
C2677       C  0.95799964  0.07537042  0.86090141     0.01700
C2678       C  0.97188270  0.09945076  0.83118699     0.04500
C2679       C  0.96168461  0.11321163  0.83222495    -0.11600
C2680       C  0.93732165  0.10324768  0.86326581     0.23800
C2681       C  0.92310218  0.07898751  0.89210057    -0.12100
C2682       C  0.93301796  0.06492947  0.88943108     0.05200
C2683       C  0.92532720  0.11667001  0.86032497     0.27600
C2684       C  0.94615783  0.15197938  0.37865947    -0.12800
C2685       C  0.93415399  0.16402344  0.37841993     0.05700
C2686       C  0.90108715  0.14047775  0.85708048    -0.08800
C2687       C  0.88879973  0.11542145  0.83159763     0.06500
C2688       C  0.90136571  0.10405689  0.83080292    -0.13100
Br2689     Br  0.88901927  0.06392762  0.93309154    -0.05200
Br2690     Br  0.00449990  0.11364550  0.78562495     0.00400
Br2691     Br  0.95216532  0.19932429  0.40836182     0.00900
Br2692     Br  0.88509090  0.07096844  0.78898467    -0.03500
Br2693     Br  0.91367555  0.53373893  0.90928557     0.01000
Br2694     Br  0.98058398  0.14502060  0.78724313    -0.02800
Br2695     Br  0.97888400  0.17036378  0.41799623    -0.03700
Br2696     Br  0.85343790  0.09540983  0.80321442     0.00300
C2697       C  0.86589540  0.24889623  0.89036302     0.01700
C2698       C  0.85897446  0.26039024  0.42529221     0.04500
C2699       C  0.85956470  0.28193790  0.88088493    -0.11600
C2700       C  0.88641361  0.30256358  0.89379713     0.23800
C2701       C  0.90195230  0.29567589  0.90998047    -0.12100
C2702       C  0.89178988  0.26919931  0.90915255     0.05200
C2703       C  0.89912175  0.33146553  0.88862932     0.27600
C2704       C  0.90870979  0.34417800  0.83402557    -0.12800
C2705       C  0.92118532  0.37144393  0.83108209     0.05700
C2706       C  0.93300289  0.38878204  0.88192673    -0.08800
C2707       C  0.91777593  0.37417757  0.93634061     0.06500
C2708       C  0.90028799  0.34619093  0.93757275    -0.13100
Br2709     Br  0.93808914  0.32309198  0.92944148    -0.05200
Br2710     Br  0.82465312  0.23558228  0.46458292     0.00400
Br2711     Br  0.90122155  0.37612605  0.78401011     0.00900
Br2712     Br  0.94223569  0.34037976  0.48374930    -0.03500
Br2713     Br  0.91388467  0.26091836  0.93149276     0.01000
Br2714     Br  0.83622421  0.28986211  0.86778063    -0.02800
Br2715     Br  0.89373257  0.32118928  0.76595326    -0.03700
Br2716     Br  0.94494105  0.39114862  0.50549323     0.00300
C2717       C  0.61629053  0.04330275  0.91546101     0.01700
C2718       C  0.63685645  0.07060120  0.92167768     0.04500
C2719       C  0.66274758  0.08171613  0.90149682    -0.11600
C2720       C  0.67067648  0.06605494  0.89469452     0.23800
C2721       C  0.65117394  0.03873395  0.90167437    -0.12100
C2722       C  0.62401991  0.02738754  0.90696808     0.05200
C2723       C  0.69923238  0.07827047  0.88377350     0.27600
C2724       C  0.70750468  0.06847068  0.83825767    -0.12800
C2725       C  0.73286843  0.07537970  0.83914077     0.05700
C2726       C  0.75183794  0.09667845  0.87476277    -0.08800
C2727       C  0.74692354  0.11865220  0.41459893     0.06500
C2728       C  0.72068504  0.10889317  0.42579783    -0.13100
Br2729     Br  0.66121497  0.01650736  0.90231951    -0.05200
Br2730     Br  0.63078971  0.09375085  0.95906853     0.00400
Br2731     Br  0.74151936  0.05571179  0.79297045     0.00900
Br2732     Br  0.71395199  0.12413247  0.49200381    -0.03500
Br2733     Br  0.60700678  0.50399978  0.96344117     0.01000
Br2734     Br  0.68559749  0.11785188  0.87733751    -0.02800
Br2735     Br  0.68540222  0.04720706  0.77295313    -0.03700
Br2736     Br  0.77520063  0.15474647  0.43532028     0.00300
C2737       C  0.84198127  0.66144838  0.95023542     0.30400
C2738       C  0.84397527  0.66304956  0.29475693     0.30400
C2739       C  0.86500335  0.66569066  0.90325979    -0.05800
C2740       C  0.81994442  0.63754891  0.90703061    -0.06600
C2741       C  0.84215443  0.68196297  0.91268981    -0.06500
C2742       C  0.86516552  0.66352065  0.33163693    -0.05900
C2743       C  0.82062247  0.63982227  0.33667155    -0.06600
C2744       C  0.84721805  0.68524884  0.34275961    -0.06500
C2745       C  0.88131392  0.65738935  0.31048735    -0.31900
N2746       N  0.88983565  0.65240894  0.35655266     0.14600
C2747       C  0.88086722  0.65919236  0.91298062    -0.31900
H2748       H  0.88303024  0.65433738  0.95576079     0.16500
C2749       C  0.79625671  0.61877540  0.31996308    -0.30900
N2750       N  0.77906528  0.60836368  0.87503853     0.13300
C2751       C  0.79416143  0.61762142  0.92321678    -0.30900
C2752       C  0.85558738  0.71048444  0.33426569    -0.31200
N2753       N  0.85056060  0.71909825  0.88778792     0.13800
H2754       H  0.85972072  0.71915494  0.29129073     0.16500
C2755       C  0.84736335  0.70481423  0.93370363    -0.31200
H2756       H  0.85068527  0.71157233  0.97973416     0.16500
H2757       H  0.78616810  0.61384628  0.96853034     0.16500
H2758       H  0.88502046  0.65474370  0.26407550     0.16500
H2759       H  0.78965332  0.61457306  0.27531673     0.16500
C2760       C  0.84130966  0.66071271  0.19976956     0.30400
C2761       C  0.84087569  0.66074228  0.04627954     0.30400
C2762       C  0.84404242  0.64219364  0.15268598    -0.05800
C2763       C  0.81642474  0.65353427  0.16256178    -0.06600
C2764       C  0.86210761  0.68503154  0.15719934    -0.06500
C2765       C  0.84371161  0.64211300  0.08410359    -0.05900
C2766       C  0.81622193  0.65357591  0.09395084    -0.06600
C2767       C  0.86236063  0.68552232  0.08928603    -0.06500
C2768       C  0.84852194  0.62503620  0.06397963    -0.31900
N2769       N  0.85229583  0.61564664  0.11066847     0.14600
C2770       C  0.84931452  0.62540668  0.16297950    -0.31900
H2771       H  0.85167412  0.62114480  0.20622319     0.16500
C2772       C  0.78971491  0.64092944  0.08377081    -0.30900
N2773       N  0.77408625  0.63262030  0.13539277     0.13300
C2774       C  0.79000626  0.64064293  0.18203532    -0.30900
C2775       C  0.88536221  0.71016734  0.07556594    -0.31200
N2776       N  0.89888071  0.72357792  0.12593186     0.13800
H2777       H  0.89088682  0.71764067  0.03109263     0.16500
C2778       C  0.88430118  0.70849125  0.17395825    -0.31200
H2779       H  0.88845788  0.71401570  0.22001486     0.16500
H2780       H  0.78255406  0.63626635  0.22768859     0.16500
H2781       H  0.85009666  0.62036582  0.01773086     0.16500
H2782       H  0.78182325  0.63619083  0.04038865     0.16500
O2783       O  0.56110336  0.99773157  0.29101032    -0.74900
O2784       O  0.53672622  0.97360129  0.37061166    -0.54700
C2785       C  0.55468433  0.98070250  0.32956921     0.78800
O2786       O  0.57592426  0.60228086  0.32395002    -0.59500
O2787       O  0.03575725  0.58866734  0.27902060    -0.52600
C2788       C  0.56260123  0.60867414  0.30564382     0.70800
O2789       O  0.59170151  0.55366730  0.39159043    -0.74100
O2790       O  0.57026844  0.02570255  0.39811502    -0.54700
C2791       C  0.59075789  0.53523493  0.41068449     0.76800
O2792       O  0.56421796  0.05857866  0.21719271    -0.59200
O2793       O  0.04630928  0.56768198  0.21247601    -0.52400
C2794       C  0.05060006  0.55388351  0.18201902     0.73400
Zr2795     Zr  0.53791099  0.01348032  0.25483337     2.54700
O2796       O  0.58675565  0.53899298  0.22521989    -0.79800
O2797       O  0.02658069  0.96502340  0.21592413    -0.93200
Zr2798     Zr  0.56440666  0.56458684  0.36943252     2.64700
O2799       O  0.60367210  0.58947965  0.30145194    -0.98200
O2800       O  0.58501671  0.59339713  0.45583261    -0.80200
O2801       O  0.55534541  0.52353126  0.34366255    -0.83600
O2802       O  0.53451786  0.53874170  0.29996791    -2.18300
O2803       O  0.92921473  0.98080115  0.31911850    -0.67000
O2804       O  0.94928579  0.01832950  0.26994674    -0.51600
C2805       C  0.92725799  0.99661676  0.29516118     0.71800
O2806       O  0.95728856  0.48316067  0.42527546    -0.59900
O2807       O  0.46886684  0.96684808  0.41257302    -0.51900
C2808       C  0.94571655  0.95965683  0.93807922     0.73600
O2809       O  0.97596559  0.55422861  0.39995217    -0.71300
O2810       O  0.98372266  0.56283796  0.30159689    -0.50000
C2811       C  0.97492548  0.56419201  0.35320887     0.75000
O2812       O  0.94558213  0.92903879  0.34457388    -0.66600
O2813       O  0.97824397  0.94013353  0.40033881    -0.53800
C2814       C  0.95480800  0.92164241  0.37757844     0.73300
Zr2815     Zr  0.96174254  0.97273995  0.31233369     2.77500
O2816       O  0.91271620  0.94148579  0.34069646    -0.97400
O2817       O  0.94985894  0.93247885  0.26647127    -0.78200
Zr2818     Zr  0.99299579  0.52990466  0.42397757     2.70100
O2819       O  0.95315067  0.02983583  0.46016824    -0.79400
O2820       O  0.53155770  0.57964349  0.43965804    -0.98500
Zr2821     Zr  0.51668145  0.99433449  0.40270491     2.21500
Zr2822     Zr  0.00200211  0.54126604  0.26842985     2.11100
O2823       O  0.97433021  0.01550253  0.34221235    -2.47200
O2824       O  0.99454369  0.00406480  0.37314025    -0.79200
O2825       O  0.99717306  0.00412375  0.24515375    -0.71400
O2826       O  0.53216433  0.53390728  0.43975593    -2.32400
O2827       O  0.00175060  0.97676075  0.30916438    -2.28600
O2828       O  0.52631640  0.56379330  0.36840218    -0.73200
H2829       H  0.52387255  0.52742226  0.32971714     0.78800
H2830       H  0.53722615  0.54112823  0.47863921     0.79900
H2831       H  0.96204364  0.01824779  0.35735098     0.82100
H2832       H  0.99653995  0.95961720  0.30243099     0.79700
H2833       H  0.59149615  0.61068002  0.44261825     0.42800
H2834       H  0.52311548  0.58760337  0.45251479     0.41700
H2835       H  0.93766894  0.01178110  0.45005618     0.41400
H2836       H  0.90709994  0.92397246  0.34819696     0.39300
H2837       H  0.93308486  0.92490678  0.24810783     0.42500
H2838       H  0.01764518  0.95195371  0.24753659     0.37300
H2839       H  0.59559139  0.53696947  0.25557122     0.43400
H2840       H  0.61756523  0.60465882  0.32558401     0.39800
H2841       H  0.89971068  0.93718076  0.31188669     0.44700
H2842       H  0.04163259  0.96529640  0.20237975     0.43400
H2843       H  0.60982134  0.57898311  0.29484871     0.43600
H2844       H  0.03778067  0.58281946  0.97084024     0.43900
O2845       O  0.49867027  0.93153766  0.03787469    -0.74900
O2846       O  0.52529474  0.95751121  0.11127270    -0.53900
C2847       C  0.51866402  0.94080022  0.06928146     0.78800
O2848       O  0.51784111  0.56110050  0.06436726    -0.59500
O2849       O  0.97307823  0.53502364  0.04182088    -0.52600
C2850       C  0.49947398  0.56313648  0.05913597     0.70800
O2851       O  0.56244504  0.53380401  0.09045832    -0.74100
O2852       O  0.55154947  0.49862204  0.13389144    -0.54700
C2853       C  0.56951188  0.52140108  0.11095170     0.76800
O2854       O  0.42777471  0.92932919  0.46312772    -0.59200
O2855       O  0.91864090  0.44646102  0.47446518    -0.52400
C2856       C  0.93220211  0.44047007  0.45016965     0.73400
Zr2857     Zr  0.47984454  0.95271571  0.01085072     2.54700
O2858       O  0.52736314  0.49021483  0.49820735    -0.79800
O2859       O  0.98923014  0.92146892  0.46081064    -0.93200
Zr2860     Zr  0.51984765  0.52455321  0.07084020     2.64700
O2861       O  0.56187898  0.54104447  0.02195575    -0.98200
O2862       O  0.54621922  0.57190103  0.08178427    -0.80200
O2863       O  0.50924673  0.48366421  0.06576143    -0.83600
O2864       O  0.48552568  0.49331445  0.01376593    -2.18300
O2865       O  0.88754776  0.91949419  0.11076909    -0.67000
O2866       O  0.89838412  0.95325779  0.05540809    -0.51600
C2867       C  0.88190456  0.93068793  0.07974369     0.71800
O2868       O  0.00801951  0.53164342  0.16162424    -0.59900
O2869       O  0.52642554  0.01867189  0.17106015    -0.51900
C2870       C  0.03051430  0.03541759  0.16502333     0.73600
O2871       O  0.93564976  0.51334695  0.16292168    -0.71300
O2872       O  0.92723683  0.50628076  0.06556021    -0.50000
C2873       C  0.92661051  0.51583896  0.11631281     0.75000
O2874       O  0.93381311  0.89890005  0.17513875    -0.66600
O2875       O  0.97723992  0.92230255  0.19534959    -0.53800
C2876       C  0.95367465  0.89992868  0.18775831     0.73300
Zr2877     Zr  0.92660778  0.93033491  0.14790814     2.77500
O2878       O  0.89169369  0.90985355  0.22857403    -0.97400
O2879       O  0.89391457  0.88984272  0.09444708    -0.78200
Zr2880     Zr  0.96302967  0.49822008  0.18255029     2.70100
O2881       O  0.93592227  0.96297688  0.23131596    -0.79400
O2882       O  0.47873781  0.54826577  0.20283846    -0.98500
Zr2883     Zr  0.50216621  0.97254601  0.16171620     2.21500
Zr2884     Zr  0.94425475  0.48300863  0.03772027     2.11100
O2885       O  0.93031159  0.96997599  0.13685661    -2.47200
O2886       O  0.96344571  0.96581725  0.20200901    -0.79200
O2887       O  0.94345103  0.94920792  0.05918785    -0.71400
O2888       O  0.48534120  0.49117164  0.13120634    -2.32400
O2889       O  0.96430405  0.93465458  0.10642769    -2.28600
O2890       O  0.48111039  0.51986683  0.10356067    -0.73200
H2891       H  0.49233242  0.50314325  0.98090663     0.78800
H2892       H  0.47159087  0.47902798  0.10555130     0.79900
H2893       H  0.91513247  0.96901671  0.14995600     0.82100
H2894       H  0.96256878  0.91935480  0.09932565     0.79700
H2895       H  0.56492488  0.57955306  0.08528605     0.42800
H2896       H  0.48020667  0.55308168  0.16158147     0.41700
H2897       H  0.91768840  0.95726006  0.23132229     0.41400
H2898       H  0.88003099  0.91434340  0.22193137     0.39300
H2899       H  0.87930429  0.87781847  0.12358381     0.42500
H2900       H  0.97588075  0.90575737  0.43737760     0.37300
H2901       H  0.53487887  0.48128188  0.48443134     0.43400
H2902       H  0.55313512  0.52991312  0.98761534     0.39800
H2903       H  0.88036212  0.89087177  0.21991588     0.44700
H2904       H  0.00553521  0.93181997  0.43430666     0.43400
H2905       H  0.57123595  0.55898143  0.00797316     0.43600
H2906       H  0.99472941  0.55646968  0.20232677     0.43900
C2907       C  0.64808872  0.84415904  0.21934842     0.30400
C2908       C  0.64707006  0.84316278  0.37398370     0.30400
C2909       C  0.63680121  0.85558033  0.26722998    -0.05800
C2910       C  0.63462090  0.81946416  0.25912747    -0.06600
C2911       C  0.67543309  0.86004611  0.25992969    -0.06500
C2912       C  0.63586095  0.85471715  0.33627203    -0.05900
C2913       C  0.63421512  0.81850231  0.32786201    -0.06600
C2914       C  0.67481455  0.85997321  0.32916119    -0.06500
C2915       C  0.63248725  0.87290613  0.35627210    -0.31900
N2916       N  0.63117178  0.88410696  0.30983098     0.14600
C2917       C  0.63609720  0.87573620  0.25822641    -0.31900
H2918       H  0.64149219  0.88585803  0.21731181     0.16500
C2919       C  0.63262997  0.79709759  0.33575310    -0.30900
N2920       N  0.63163368  0.78617747  0.28226635     0.13300
C2921       C  0.63351715  0.79942527  0.23725497    -0.30900
C2922       C  0.70170860  0.87827358  0.34258871    -0.31200
N2923       N  0.71845294  0.88786422  0.29270762     0.13800
H2924       H  0.70885450  0.88527578  0.38655583     0.16500
C2925       C  0.70294139  0.87731188  0.24375679    -0.31200
H2926       H  0.71110494  0.88213832  0.19836878     0.16500
H2927       H  0.63725965  0.79632800  0.19126833     0.16500
H2928       H  0.63328091  0.87941577  0.40173933     0.16500
H2929       H  0.63530881  0.79150469  0.37662992     0.16500
C2930       C  0.64301546  0.83905770  0.47021281     0.30400
C2931       C  0.64215726  0.83900085  0.62467174     0.30400
C2932       C  0.62931983  0.84821191  0.51695216    -0.05800
C2933       C  0.62845674  0.81213682  0.51131868    -0.06600
C2934       C  0.66843872  0.85427044  0.51080070    -0.06500
C2935       C  0.62821080  0.84757155  0.58574947    -0.05900
C2936       C  0.62841264  0.81224592  0.58026084    -0.06600
C2937       C  0.66815433  0.85461496  0.57955349    -0.06500
C2938       C  0.60708289  0.84765874  0.60285169    -0.31900
N2939       N  0.59756909  0.85071967  0.55521147     0.14600
C2940       C  0.61032038  0.85044306  0.50471597    -0.31900
H2941       H  0.60435175  0.84950734  0.46080036     0.16500
C2942       C  0.61353887  0.78564102  0.59390291    -0.30900
N2943       N  0.60434571  0.76952778  0.54411964     0.13300
C2944       C  0.61279255  0.78522513  0.49563641    -0.30900
C2945       C  0.69242343  0.86213159  0.59152716    -0.31200
N2946       N  0.70650635  0.86602256  0.54008808     0.13800
H2947       H  0.69815834  0.86122599  0.63431548     0.16500
C2948       C  0.69223025  0.86026019  0.49264590    -0.31200
H2949       H  0.69736538  0.85678192  0.44861061     0.16500
H2950       H  0.60695483  0.77731220  0.45122268     0.16500
H2951       H  0.59737683  0.84319469  0.64653814     0.16500
H2952       H  0.60974366  0.77855329  0.63829524     0.16500
C2953       C  0.50922845  0.59245916  0.06322564     0.01700
C2954       C  0.53310532  0.61285663  0.09176531     0.04500
C2955       C  0.54752284  0.64019079  0.08255810    -0.11600
C2956       C  0.54430600  0.65253112  0.54718775     0.23800
C2957       C  0.51816512  0.63242360  0.52660097    -0.12100
C2958       C  0.50390722  0.60471292  0.53544136     0.05200
C2959       C  0.55964396  0.68299393  0.54257469     0.27600
C2960       C  0.54903514  0.69502625  0.57083028    -0.12800
C2961       C  0.56287775  0.72279009  0.56870508     0.05700
C2962       C  0.58906408  0.74047117  0.54269286    -0.08800
C2963       C  0.60047224  0.72893544  0.51763776     0.06500
C2964       C  0.58613413  0.70101857  0.51613007    -0.13100
Br2965     Br  0.50278494  0.64232220  0.47918684    -0.05200
Br2966     Br  0.54095418  0.60505086  0.16172541     0.00400
Br2967     Br  0.53915998  0.73405306  0.10549373     0.00900
Br2968     Br  0.60418431  0.68841752  0.47774011    -0.03500
Br2969     Br  0.96742385  0.57766688  0.50725569     0.01000
Br2970     Br  0.58061301  0.66472375  0.11952267    -0.02800
Br2971     Br  0.51032025  0.67126167  0.12394905    -0.03700
Br2972     Br  0.63721001  0.75218563  0.48969130     0.00300
C2973       C  0.85482158  0.91629690  0.06815849     0.01700
C2974       C  0.84594185  0.89690035  0.53331119     0.04500
C2975       C  0.81983148  0.88647330  0.52405372    -0.11600
C2976       C  0.80959101  0.89851827  0.55198717     0.23800
C2977       C  0.81464500  0.91048856  0.08872244    -0.12100
C2978       C  0.84074712  0.92298954  0.10109543     0.05200
C2979       C  0.78280869  0.88853544  0.54148126     0.27600
C2980       C  0.77895181  0.90408605  0.51167087    -0.12800
C2981       C  0.75346087  0.89645703  0.51111165     0.05700
C2982       C  0.73195420  0.87257987  0.53614408    -0.08800
C2983       C  0.73551856  0.85592409  0.56042480     0.06500
C2984       C  0.76115636  0.86460411  0.56661021    -0.13100
Br2985     Br  0.79526215  0.92074395  0.13207231    -0.05200
Br2986     Br  0.86126301  0.88257063  0.48942778     0.00400
Br2987     Br  0.74820710  0.91960746  0.48068792     0.00900
Br2988     Br  0.76577845  0.83305398  0.08809677    -0.03500
Br2989     Br  0.85778337  0.94880236  0.16373929     0.01000
Br2990     Br  0.79866021  0.85662260  0.47106228    -0.02800
Br2991     Br  0.80853296  0.93719196  0.47761028    -0.03700
Br2992     Br  0.70518475  0.82107283  0.58321387     0.00300
C2993       C  0.53544908  0.93250169  0.05521278     0.01700
C2994       C  0.56266450  0.95094876  0.04047625     0.04500
C2995       C  0.54717142  0.90622542  0.51249796    -0.11600
C2996       C  0.53091650  0.87944569  0.52444359     0.23800
C2997       C  0.54109503  0.89931343  0.06078193    -0.12100
C2998       C  0.52464693  0.90638869  0.05872365     0.05200
C2999       C  0.54414313  0.86792294  0.53841675     0.27600
C3000       C  0.54260769  0.84882471  0.50131485    -0.12800
C3001       C  0.55741048  0.84051084  0.51312194     0.05700
C3002       C  0.57708261  0.85380006  0.55604113    -0.08800
C3003       C  0.57869405  0.87292294  0.59328588     0.06500
C3004       C  0.60892618  0.92274394  0.08044656    -0.13100
Br3005     Br  0.52581194  0.86570178  0.09223604    -0.05200
Br3006     Br  0.57619168  0.98617361  0.02895286     0.00400
Br3007     Br  0.55006606  0.81022863  0.47086570     0.00900
Br3008     Br  0.61914975  0.95158371  0.13326175    -0.03500
Br3009     Br  0.98108068  0.87323353  0.04911174     0.01000
Br3010     Br  0.58412225  0.92463931  0.48953622    -0.02800
Br3011     Br  0.52366847  0.83643044  0.42887725    -0.03700
Br3012     Br  0.65837390  0.93467009  0.11336558     0.00300
C3013       C  0.57744754  0.63615681  0.29625224     0.01700
C3014       C  0.57228909  0.65018305  0.33479081     0.04500
C3015       C  0.58477475  0.67611075  0.32387285    -0.11600
C3016       C  0.60373886  0.68822897  0.27590873     0.23800
C3017       C  0.61160132  0.67525141  0.24180279    -0.12100
C3018       C  0.59796475  0.64879222  0.25147110     0.05200
C3019       C  0.61389256  0.71408171  0.26074168     0.27600
C3020       C  0.59543154  0.71721890  0.24407522    -0.12800
C3021       C  0.60132240  0.74128239  0.25350162     0.05700
C3022       C  0.62641554  0.76227884  0.27247102    -0.08800
C3023       C  0.64619954  0.76025202  0.28021170     0.06500
C3024       C  0.63952988  0.73563622  0.27775085    -0.13100
Br3025     Br  0.63968313  0.69307090  0.17989852    -0.05200
Br3026     Br  0.54897734  0.63428483  0.40364146     0.00400
Br3027     Br  0.57405807  0.74504625  0.24945228     0.00900
Br3028     Br  0.66375936  0.73141921  0.30775346    -0.03500
Br3029     Br  0.60676140  0.62992105  0.20192904     0.01000
Br3030     Br  0.57413682  0.69420760  0.37170776    -0.02800
Br3031     Br  0.55968960  0.68785260  0.22374920    -0.03700
Br3032     Br  0.68149983  0.79108951  0.29735367     0.00300
C3033       C  0.89713291  0.98594046  0.30126672     0.01700
C3034       C  0.88526201  0.99541162  0.27615741     0.04500
C3035       C  0.85656580  0.97993056  0.27434905    -0.11600
C3036       C  0.83794796  0.95463204  0.30068591     0.23800
C3037       C  0.85015202  0.94700741  0.33233873    -0.12100
C3038       C  0.87825510  0.96368069  0.33755063     0.05200
C3039       C  0.80662820  0.93727046  0.29841279     0.27600
C3040       C  0.79227626  0.94650718  0.32037000    -0.12800
C3041       C  0.76390264  0.93103224  0.31551125     0.05700
C3042       C  0.74805682  0.90488394  0.29311887    -0.08800
C3043       C  0.76174863  0.89496446  0.27554620     0.06500
C3044       C  0.79020421  0.91075044  0.27607281    -0.13100
Br3045     Br  0.82940278  0.91424890  0.37354057    -0.05200
Br3046     Br  0.90698599  0.03185055  0.26383601     0.00400
Br3047     Br  0.74635849  0.94578348  0.33847433     0.00900
Br3048     Br  0.80571317  0.89503463  0.24191622    -0.03500
Br3049     Br  0.88834100  0.96367043  0.41462346     0.01000
Br3050     Br  0.84327774  0.99148614  0.22518786    -0.02800
Br3051     Br  0.81069862  0.97961215  0.36285452    -0.03700
Br3052     Br  0.74068933  0.85856088  0.25311170     0.00300
C3053       C  0.62268445  0.90000151  0.31311614     0.01700
C3054       C  0.63537388  0.92296319  0.34878661     0.04500
C3055       C  0.62539984  0.93704737  0.35430751    -0.11600
C3056       C  0.60408640  0.92965583  0.31957818     0.23800
C3057       C  0.59351717  0.90822631  0.27935047    -0.12100
C3058       C  0.60114724  0.89239774  0.27989844     0.05200
C3059       C  0.59212614  0.94346157  0.32476905     0.27600
C3060       C  0.56478776  0.92932736  0.34014015    -0.12800
C3061       C  0.55254815  0.94092175  0.33683770     0.05700
C3062       C  0.56769931  0.96791156  0.32560601    -0.08800
C3063       C  0.59514707  0.98214789  0.31069287     0.06500
C3064       C  0.60689638  0.96967034  0.30766032    -0.13100
Br3065     Br  0.56901812  0.90067669  0.22119887    -0.05200
Br3066     Br  0.66735150  0.93598001  0.38715651     0.00400
Br3067     Br  0.51451202  0.91821542  0.34159324     0.00900
Br3068     Br  0.64264629  0.98754913  0.27534061    -0.03500
Br3069     Br  0.58008391  0.85892186  0.23890936     0.01000
Br3070     Br  0.64157873  0.96631293  0.40956708    -0.02800
Br3071     Br  0.54324701  0.89335388  0.36404108    -0.03700
Br3072     Br  0.61676996  0.01868166  0.29360113     0.00300
C3073       C  0.86139985  0.60025078  0.10593854     0.01700
C3074       C  0.88656927  0.61059589  0.07924952     0.04500
C3075       C  0.89628787  0.59635972  0.07828063    -0.11600
C3076       C  0.88173156  0.57208722  0.10763307     0.23800
C3077       C  0.85638800  0.56193826  0.13459496    -0.12100
C3078       C  0.84597040  0.57540585  0.13132023     0.05200
C3079       C  0.89315780  0.55774461  0.11085486     0.27600
C3080       C  0.88112822  0.53304948  0.08270733    -0.12800
C3081       C  0.89135966  0.51935325  0.08735873     0.05700
C3082       C  0.91483178  0.53031123  0.11804639    -0.08800
C3083       C  0.92793292  0.55620874  0.14210911     0.06500
C3084       C  0.91667179  0.56908904  0.14074696    -0.13100
Br3085     Br  0.83590611  0.53028479  0.17914130    -0.05200
Br3086     Br  0.90847107  0.64512506  0.04674556     0.00400
Br3087     Br  0.87242133  0.48507380  0.05053014     0.00900
Br3088     Br  0.93414012  0.60303411  0.17946241    -0.03500
Br3089     Br  0.80983857  0.55941229  0.15857046     0.01000
Br3090     Br  0.92994776  0.61089380  0.03682716    -0.02800
Br3091     Br  0.85107086  0.51821842  0.03442598    -0.03700
Br3092     Br  0.96228126  0.57608818  0.17419514     0.00300
C3093       C  0.92225258  0.75081694  0.13118271     0.01700
C3094       C  0.93394557  0.76722217  0.08185846     0.04500
C3095       C  0.94366134  0.79333856  0.08924798    -0.11600
C3096       C  0.94178584  0.80287702  0.14679251     0.23800
C3097       C  0.93529641  0.78735919  0.19601650    -0.12100
C3098       C  0.92927913  0.76303091  0.18776068     0.05200
C3099       C  0.94505772  0.82765227  0.15706715     0.27600
C3100       C  0.96696889  0.84968597  0.18604257    -0.12800
C3101       C  0.97078366  0.87338285  0.19193588     0.05700
C3102       C  0.94984915  0.87428062  0.18199572    -0.08800
C3103       C  0.92605337  0.85046732  0.15905278     0.06500
C3104       C  0.92402284  0.82774035  0.14668574    -0.13100
Br3105     Br  0.93062298  0.79673144  0.27463112    -0.05200
Br3106     Br  0.94187822  0.75559277  0.00882624     0.00400
Br3107     Br  0.00713317  0.90430079  0.19767448     0.00900
Br3108     Br  0.89056012  0.79470874  0.12464073    -0.03500
Br3109     Br  0.93704447  0.74996990  0.24961025     0.01000
Br3110     Br  0.95886989  0.81396507  0.01921763    -0.02800
Br3111     Br  0.99055644  0.84684631  0.22410168    -0.03700
Br3112     Br  0.89456559  0.84642379  0.14475460     0.00300
C3113       C  0.74484000  0.61407375  0.13810879     0.01700
C3114       C  0.72886270  0.61768058  0.17675076     0.04500
C3115       C  0.70053727  0.60035504  0.17371600    -0.11600
C3116       C  0.68746858  0.58020168  0.12927525     0.23800
C3117       C  0.70378754  0.57615627  0.09366305    -0.12100
C3118       C  0.73145023  0.59156222  0.10094396     0.05200
C3119       C  0.65739654  0.56433757  0.11970893     0.27600
C3120       C  0.63862322  0.53659677  0.12406271    -0.12800
C3121       C  0.61071945  0.52256338  0.11769747     0.05700
C3122       C  0.60000132  0.53565133  0.11015484    -0.08800
C3123       C  0.61920711  0.56356320  0.10552752     0.06500
C3124       C  0.64702895  0.57724441  0.10771014    -0.13100
Br3125     Br  0.68998093  0.55164913  0.02931560    -0.05200
Br3126     Br  0.74542432  0.64631068  0.23372636     0.00400
Br3127     Br  0.58915045  0.98982004  0.16521847     0.00900
Br3128     Br  0.67090435  0.61464448  0.09494296    -0.03500
Br3129     Br  0.75062789  0.58000679  0.06418695     0.01000
Br3130     Br  0.67935487  0.60383294  0.23157390    -0.02800
Br3131     Br  0.65055249  0.51709967  0.14115342    -0.03700
Br3132     Br  0.60904855  0.58545118  0.10294975     0.00300
C3133       C  0.96284648  0.57794579  0.35693680     0.01700
C3134       C  0.97568679  0.60185095  0.32689216     0.04500
C3135       C  0.96409411  0.61432040  0.32721577    -0.11600
C3136       C  0.93932056  0.60336040  0.35763774     0.23800
C3137       C  0.92618073  0.57933036  0.38676666    -0.12100
C3138       C  0.93729652  0.56631863  0.38439472     0.05200
C3139       C  0.92661143  0.61631659  0.35583253     0.27600
C3140       C  0.93851221  0.64329206  0.87720104    -0.12800
C3141       C  0.92703533  0.65573777  0.87966007     0.05700
C3142       C  0.90304657  0.64100445  0.35116807    -0.08800
C3143       C  0.88991265  0.61533694  0.32865626     0.06500
C3144       C  0.90220691  0.60358874  0.32794600    -0.13100
Br3145     Br  0.89247576  0.56365462  0.42994689    -0.05200
Br3146     Br  0.00883742  0.61774811  0.28144073     0.00400
Br3147     Br  0.94470541  0.68965805  0.91790372     0.00900
Br3148     Br  0.88504274  0.56998744  0.28848379    -0.03500
Br3149     Br  0.91827105  0.03985209  0.41312599     0.01000
Br3150     Br  0.98216915  0.64623676  0.28313420    -0.02800
Br3151     Br  0.97140138  0.66055841  0.91520955    -0.03700
Br3152     Br  0.85425786  0.59558390  0.30251052     0.00300
C3153       C  0.86958579  0.75072580  0.39624792     0.01700
C3154       C  0.84631653  0.75304571  0.92483901     0.04500
C3155       C  0.86264169  0.78387149  0.40293821    -0.11600
C3156       C  0.89029733  0.80463694  0.40737155     0.23800
C3157       C  0.90696944  0.79769650  0.40972229    -0.12100
C3158       C  0.89676008  0.77113241  0.40538602     0.05200
C3159       C  0.90291146  0.83360122  0.40157102     0.27600
C3160       C  0.91058463  0.84521108  0.34572868    -0.12800
C3161       C  0.92253536  0.87220199  0.34062374     0.05700
C3162       C  0.93607494  0.89073551  0.38864500    -0.08800
C3163       C  0.92554007  0.87780670  0.44550533     0.06500
C3164       C  0.90703651  0.84992715  0.45038026    -0.13100
Br3165     Br  0.94454197  0.82531703  0.41184969    -0.05200
Br3166     Br  0.81349584  0.72691508  0.96764284     0.00400
Br3167     Br  0.90203353  0.87600885  0.29370526     0.00900
Br3168     Br  0.91950526  0.83029237  0.00051893    -0.03500
Br3169     Br  0.92005491  0.76252278  0.41081487     0.01000
Br3170     Br  0.83869364  0.79173963  0.39942961    -0.02800
Br3171     Br  0.89521785  0.82143460  0.27910790    -0.03700
Br3172     Br  0.93101434  0.88608635  0.01996420     0.00300
C3173       C  0.61804952  0.54377427  0.41888847     0.01700
C3174       C  0.63907512  0.57123530  0.42212062     0.04500
C3175       C  0.66465822  0.58170520  0.40036299    -0.11600
C3176       C  0.67197157  0.56554314  0.39338210     0.23800
C3177       C  0.65219039  0.53829475  0.40103524    -0.12100
C3178       C  0.62517386  0.52736476  0.40926897     0.05200
C3179       C  0.70042405  0.57740711  0.38231470     0.27600
C3180       C  0.70882318  0.56885979  0.33393674    -0.12800
C3181       C  0.73471419  0.57667295  0.33132984     0.05700
C3182       C  0.75335617  0.59662703  0.37050956    -0.08800
C3183       C  0.74727994  0.61487533  0.91547679     0.06500
C3184       C  0.72116846  0.60502653  0.92667068    -0.13100
Br3185     Br  0.66175823  0.51562383  0.39901048    -0.05200
Br3186     Br  0.63408287  0.59561659  0.45728199     0.00400
Br3187     Br  0.74451101  0.56077518  0.27335550     0.00900
Br3188     Br  0.71357789  0.61833853  0.99570519    -0.03500
Br3189     Br  0.59986990  0.01372906  0.46489598     0.01000
Br3190     Br  0.68864540  0.61805629  0.37691922    -0.02800
Br3191     Br  0.68590024  0.54820319  0.26959481    -0.03700
Br3192     Br  0.77478129  0.65098036  0.93649898     0.00300
C3193       C  0.84347799  0.66147611  0.44823568     0.30400
C3194       C  0.84256474  0.66246746  0.79581082     0.30400
C3195       C  0.86496348  0.66284816  0.40054281    -0.05800
C3196       C  0.82006606  0.63873607  0.40477933    -0.06600
C3197       C  0.84666828  0.68403833  0.41112939    -0.06500
C3198       C  0.86532490  0.66621134  0.83405653    -0.05900
C3199       C  0.82023892  0.63814589  0.83827481    -0.06600
C3200       C  0.84235864  0.68263702  0.84398382    -0.06500
C3201       C  0.88189319  0.66059229  0.81394794    -0.31900
N3202       N  0.89031573  0.65583886  0.86052592     0.14600
C3203       C  0.88055546  0.65581114  0.40946613    -0.31900
H3204       H  0.88339421  0.65147528  0.45212701     0.16500
C3205       C  0.79457441  0.61904278  0.82471687    -0.30900
N3206       N  0.78032008  0.60635555  0.36868792     0.13300
C3207       C  0.79486357  0.61646074  0.41836501    -0.30900
C3208       C  0.84761511  0.70623045  0.83482829    -0.31200
N3209       N  0.85930430  0.72353123  0.38764911     0.13800
H3210       H  0.85107811  0.71447206  0.79160151     0.16500
C3211       C  0.85373616  0.70768399  0.43266736    -0.31200
H3212       H  0.85555420  0.71319658  0.47902227     0.16500
H3213       H  0.78635417  0.61047510  0.46300259     0.16500
H3214       H  0.88514169  0.65714417  0.76780636     0.16500
H3215       H  0.78706389  0.61619091  0.78157205     0.16500
C3216       C  0.84170253  0.66107481  0.69914400     0.30400
C3217       C  0.84266801  0.66091505  0.54426511     0.30400
C3218       C  0.84580716  0.64325177  0.65259445    -0.05800
C3219       C  0.81700001  0.65297340  0.65891007    -0.06600
C3220       C  0.86247328  0.68596214  0.65633112    -0.06500
C3221       C  0.84590546  0.64298015  0.58369238    -0.05900
C3222       C  0.81764266  0.65300390  0.58990241    -0.06600
C3223       C  0.86324221  0.68601750  0.58757862    -0.06500
C3224       C  0.85026088  0.62552098  0.56469746    -0.31900
N3225       N  0.85380500  0.61629235  0.61202404     0.14600
C3226       C  0.85095033  0.62644014  0.66383609    -0.31900
H3227       H  0.85309699  0.62228898  0.70737190     0.16500
C3228       C  0.79156351  0.63974787  0.57638471    -0.30900
N3229       N  0.77543274  0.63151943  0.62658524     0.13300
C3230       C  0.79030522  0.63976800  0.67535507    -0.30900
C3231       C  0.88364698  0.71166758  0.57326485    -0.31200
N3232       N  0.89384599  0.72653928  0.62388119     0.13800
H3233       H  0.88984571  0.71934686  0.52868935     0.16500
C3234       C  0.88160902  0.71142134  0.67278842    -0.31200
H3235       H  0.88546063  0.71881962  0.71830235     0.16500
H3236       H  0.78189399  0.63583932  0.72034955     0.16500
H3237       H  0.85145098  0.62026060  0.51877251     0.16500
H3238       H  0.78448409  0.63520484  0.53215095     0.16500
O3239       O  0.55993485  0.99166798  0.77720562    -0.74900
O3240       O  0.53479972  0.96799574  0.85653520    -0.54700
C3241       C  0.55114355  0.97311067  0.81291013     0.78800
O3242       O  0.57117592  0.60592091  0.83897513    -0.59500
O3243       O  0.03439214  0.59101290  0.77897832    -0.52600
C3244       C  0.55934636  0.61168741  0.81014644     0.70800
O3245       O  0.58960988  0.55836404  0.90640206    -0.74100
O3246       O  0.56673478  0.01135724  0.91367490    -0.54700
C3247       C  0.59075027  0.54078995  0.92253040     0.76800
O3248       O  0.56559363  0.05362332  0.70526740    -0.59200
O3249       O  0.04805897  0.57125815  0.72562952    -0.52400
C3250       C  0.05411319  0.55904177  0.69377108     0.73400
Zr3251     Zr  0.53808692  0.00895361  0.74474872     2.54700
O3252       O  0.58920964  0.54546145  0.75108588    -0.79800
O3253       O  0.04425131  0.97790211  0.68175967    -0.93200
Zr3254     Zr  0.56153734  0.56900970  0.88440955     2.64700
O3255       O  0.60253413  0.59855681  0.82425190    -0.98200
O3256       O  0.57880721  0.59662849  0.97408491    -0.80200
O3257       O  0.55407020  0.52874811  0.85960572    -0.83600
O3258       O  0.53520842  0.54437414  0.80783655    -2.18300
O3259       O  0.91722863  0.97260362  0.82570541    -0.67000
O3260       O  0.93809760  0.01004761  0.77272012    -0.51600
C3261       C  0.91629068  0.98927760  0.80124183     0.71800
O3262       O  0.95411651  0.48665551  0.93083144    -0.59900
O3263       O  0.47282139  0.96451455  0.92528815    -0.51900
C3264       C  0.95340741  0.96904069  0.42429890     0.73600
O3265       O  0.97395810  0.55684829  0.89880258    -0.71300
O3266       O  0.98232198  0.56424954  0.79995445    -0.50000
C3267       C  0.97324490  0.56617381  0.85041035     0.75000
O3268       O  0.93130813  0.92059209  0.85934900    -0.66600
O3269       O  0.96683106  0.92924073  0.89931629    -0.53800
C3270       C  0.94163461  0.91238005  0.88417286     0.73300
Zr3271     Zr  0.94890502  0.96289043  0.82347103     2.77500
O3272       O  0.90100352  0.93748630  0.84640847    -0.97400
O3273       O  0.93505999  0.93163225  0.74495349    -0.78200
Zr3274     Zr  0.98965004  0.53214787  0.92881289     2.70100
O3275       O  0.94953063  0.02222776  0.96552701    -0.79400
O3276       O  0.52662874  0.58309378  0.94294591    -0.98500
Zr3277     Zr  0.51804301  0.99037252  0.89569083     2.21500
Zr3278     Zr  0.00182658  0.54361258  0.77195160     2.11100
O3279       O  0.96314645  0.00684913  0.84100595    -2.47200
O3280       O  0.98271681  0.99089100  0.87930938    -0.79200
O3281       O  0.98672637  0.99559518  0.76728864    -0.71400
O3282       O  0.52772921  0.53732818  0.95060860    -2.32400
O3283       O  0.98402628  0.95858863  0.80860656    -2.28600
O3284       O  0.52309309  0.56697432  0.87383518    -0.73200
H3285       H  0.52350222  0.53263014  0.83665450     0.78800
H3286       H  0.53213120  0.54465846  0.98955189     0.79900
H3287       H  0.95192191  0.01020094  0.86076272     0.82100
H3288       H  0.97700385  0.94089692  0.79872875     0.79700
H3289       H  0.58569430  0.61410028  0.96131264     0.42800
H3290       H  0.51815197  0.59138872  0.94997297     0.41700
H3291       H  0.93311727  0.00521222  0.95284576     0.41400
H3292       H  0.89501226  0.92478772  0.87759990     0.39300
H3293       H  0.92115083  0.91411084  0.76116083     0.42500
H3294       H  0.04024395  0.96111412  0.68807325     0.37300
H3295       H  0.59659214  0.54783378  0.79009160     0.43400
H3296       H  0.61454960  0.61383926  0.85057531     0.39800
H3297       H  0.89180242  0.92612242  0.81139724     0.44700
H3298       H  0.06255407  0.99018180  0.69341881     0.43400
H3299       H  0.61088874  0.59008173  0.81813841     0.43600
H3300       H  0.04093335  0.58026755  0.46298509     0.43900
O3301       O  0.48172875  0.91757410  0.52974013    -0.74900
O3302       O  0.51311139  0.94288952  0.59574576    -0.53900
C3303       C  0.50130454  0.92350652  0.55795709     0.78800
O3304       O  0.52366845  0.56371969  0.56475887    -0.59500
O3305       O  0.98015209  0.53979260  0.54021914    -0.52600
C3306       C  0.50524594  0.56559616  0.55912947     0.70800
O3307       O  0.56718703  0.53943680  0.61140346    -0.74100
O3308       O  0.55550607  0.50459185  0.65926617    -0.54700
C3309       C  0.57354472  0.52720047  0.63605591     0.76800
O3310       O  0.43289302  0.92913498  0.97866626    -0.59200
O3311       O  0.91290398  0.44869431  0.96665469    -0.52400
C3312       C  0.92680990  0.44329140  0.94114605     0.73400
Zr3313     Zr  0.47181552  0.94654136  0.50441664     2.54700
O3314       O  0.52292057  0.48434006  0.00690105    -0.79800
O3315       O  0.98548862  0.91814095  0.96417988    -0.93200
Zr3316     Zr  0.52683332  0.52839021  0.56997807     2.64700
O3317       O  0.56655008  0.53974631  0.50897050    -0.98200
O3318       O  0.55506862  0.57543500  0.56164484    -0.80200
O3319       O  0.51883093  0.48768207  0.57213898    -0.83600
O3320       O  0.49122995  0.49619737  0.51375495    -2.18300
O3321       O  0.89926149  0.92216588  0.57690707    -0.67000
O3322       O  0.90339667  0.95829650  0.56436338    -0.51600
C3323       C  0.88936824  0.93373763  0.57308123     0.71800
O3324       O  0.01353831  0.53775407  0.66084684    -0.59900
O3325       O  0.52524715  0.01359147  0.66300180    -0.51900
C3326       C  0.04755820  0.04478034  0.70204752     0.73600
O3327       O  0.93802666  0.51576916  0.65396833    -0.71300
O3328       O  0.92892575  0.50610826  0.55750140    -0.50000
C3329       C  0.92772330  0.51606663  0.60697790     0.75000
O3330       O  0.94521315  0.90865355  0.67881175    -0.66600
O3331       O  0.99002113  0.93355212  0.68694460    -0.53800
C3332       C  0.96577934  0.91111781  0.69161287     0.73300
Zr3333     Zr  0.93349601  0.93506605  0.64161967     2.77500
O3334       O  0.89373936  0.91917171  0.70768282    -0.97400
O3335       O  0.90309575  0.88758797  0.63161350    -0.78200
Zr3336     Zr  0.96820645  0.50462749  0.67553315     2.70100
O3337       O  0.94190978  0.97370488  0.73932213    -0.79400
O3338       O  0.48333334  0.55315322  0.70251672    -0.98500
Zr3339     Zr  0.49899771  0.96758251  0.64947221     2.21500
Zr3340     Zr  0.95091397  0.48702301  0.53252157     2.11100
O3341       O  0.93948751  0.97587027  0.63838521    -2.47200
O3342       O  0.97214489  0.96960238  0.68871654    -0.79200
O3343       O  0.94256790  0.94704378  0.54399053    -0.71400
O3344       O  0.49342331  0.49764492  0.63549339    -2.32400
O3345       O  0.97314719  0.94284957  0.60112053    -2.28600
O3346       O  0.48657569  0.52000193  0.59687390    -0.73200
H3347       H  0.49589008  0.50425316  0.47848645     0.78800
H3348       H  0.48105890  0.48377786  0.61120059     0.79900
H3349       H  0.92442616  0.97520554  0.65030149     0.82100
H3350       H  0.97004526  0.92682424  0.59833476     0.79700
H3351       H  0.57192750  0.58248646  0.57909200     0.42800
H3352       H  0.48312725  0.55691695  0.66123102     0.41700
H3353       H  0.92308156  0.96322742  0.73047581     0.41400
H3354       H  0.88271226  0.92179712  0.68705670     0.39300
H3355       H  0.88588752  0.88206100  0.61916530     0.42500
H3356       H  0.97179991  0.90156541  0.94438508     0.37300
H3357       H  0.53048948  0.47638599  0.98674551     0.43400
H3358       H  0.58176683  0.55833033  0.51612768     0.39800
H3359       H  0.88278206  0.89997342  0.71006246     0.44700
H3360       H  0.00007597  0.92760995  0.93341653     0.43400
H3361       H  0.57226865  0.52951686  0.51866825     0.43600
H3362       H  0.00139575  0.56254912  0.69953743     0.43900
C3363       C  0.64526936  0.84260433  0.72070352     0.30400
C3364       C  0.64377204  0.83990654  0.87432936     0.30400
C3365       C  0.62504502  0.84278909  0.76852241    -0.05800
C3366       C  0.64225549  0.82090781  0.75781863    -0.06600
C3367       C  0.67068121  0.86480066  0.76375953    -0.06500
C3368       C  0.62367358  0.84060475  0.83701380    -0.05900
C3369       C  0.64107856  0.81924244  0.82639999    -0.06600
C3370       C  0.66976556  0.86330815  0.83278645    -0.06500
C3371       C  0.60974298  0.84906569  0.85893502    -0.31900
N3372       N  0.60557601  0.85870386  0.81439497     0.14600
C3373       C  0.61502417  0.85572171  0.76169269    -0.31900
H3374       H  0.61822955  0.86605415  0.72248420     0.16500
C3375       C  0.64657760  0.80292132  0.83536047    -0.30900
N3376       N  0.65087032  0.79518448  0.78208343     0.13300
C3377       C  0.65026093  0.80706406  0.73658586    -0.30900
C3378       C  0.69635462  0.87951519  0.84684682    -0.31200
N3379       N  0.71312771  0.89105313  0.79769068     0.13800
H3380       H  0.70300786  0.88109209  0.89042527     0.16500
C3381       C  0.69805826  0.88286327  0.74887965    -0.31200
H3382       H  0.70669297  0.88899443  0.70438498     0.16500
H3383       H  0.65294176  0.80366368  0.68989153     0.16500
H3384       H  0.60457003  0.84996889  0.90503024     0.16500
H3385       H  0.64629529  0.79605498  0.87813661     0.16500
C3386       C  0.64127180  0.83659082  0.96935142     0.30400
C3387       C  0.64300367  0.83813544  0.12341816     0.30400
C3388       C  0.63771558  0.85412977  0.01612261    -0.05800
C3389       C  0.62159892  0.80998337  0.01231496    -0.06600
C3390       C  0.66545980  0.84459662  0.00598168    -0.06500
C3391       C  0.63697924  0.85371572  0.08433446    -0.05900
C3392       C  0.62219655  0.81051364  0.08141196    -0.06600
C3393       C  0.66672758  0.84574728  0.07477265    -0.06500
C3394       C  0.62808608  0.86742963  0.10280048    -0.31900
N3395       N  0.62749321  0.87888008  0.05591729     0.14600
C3396       C  0.63424116  0.87195232  0.00469442    -0.31900
H3397       H  0.63519085  0.87868791  0.96144139     0.16500
C3398       C  0.60644443  0.78347552  0.09468517    -0.30900
N3399       N  0.59746226  0.76721755  0.04481161     0.13300
C3400       C  0.60666032  0.78311305  0.99626458    -0.30900
C3401       C  0.68742990  0.84588487  0.08267772    -0.31200
N3402       N  0.69766461  0.84483879  0.02885530     0.13800
H3403       H  0.69486150  0.84683295  0.12504759     0.16500
C3404       C  0.68431272  0.84300779  0.98363560    -0.31200
H3405       H  0.68889285  0.84162952  0.93691656     0.16500
H3406       H  0.60366363  0.77582215  0.95067277     0.16500
H3407       H  0.61865765  0.86581639  0.14542978     0.16500
H3408       H  0.60224055  0.77600148  0.13887443     0.16500
C3409       C  0.51555610  0.59510204  0.56155224     0.01700
C3410       C  0.54024746  0.61562121  0.58722438     0.04500
C3411       C  0.55456425  0.64295635  0.57857570    -0.11600
C3412       C  0.53765586  0.64982732  0.04987527     0.23800
C3413       C  0.51182553  0.62979654  0.02820213    -0.12100
C3414       C  0.49772569  0.60209430  0.03631489     0.05200
C3415       C  0.55291026  0.68030849  0.04541427     0.27600
C3416       C  0.54264281  0.69249303  0.07457860    -0.12800
C3417       C  0.55650021  0.72029597  0.07211028     0.05700
C3418       C  0.58230859  0.73798999  0.04383417    -0.08800
C3419       C  0.59310401  0.72605781  0.01641148     0.06500
C3420       C  0.57885877  0.69808539  0.01675078    -0.13100
Br3421     Br  0.49619152  0.64004695  0.98289232    -0.05200
Br3422     Br  0.55140724  0.60784215  0.65036019     0.00400
Br3423     Br  0.54566300  0.73674889  0.60172644     0.00900
Br3424     Br  0.59605441  0.68459044  0.97865807    -0.03500
Br3425     Br  0.95971980  0.57254032  0.01225177     0.01000
Br3426     Br  0.58825562  0.66741478  0.61439176    -0.02800
Br3427     Br  0.51702314  0.67397850  0.62118743    -0.03700
Br3428     Br  0.62853777  0.74851701  0.98037704     0.00300
C3429       C  0.86091624  0.91851258  0.57243727     0.01700
C3430       C  0.84327065  0.89644058  0.02418906     0.04500
C3431       C  0.81712184  0.88361815  0.01156292    -0.11600
C3432       C  0.80314440  0.89094347  0.04367060     0.23800
C3433       C  0.82440275  0.91952140  0.59248998    -0.12100
C3434       C  0.84947500  0.92835112  0.60527101     0.05200
C3435       C  0.77618056  0.87776930  0.03084592     0.27600
C3436       C  0.76958596  0.89213487  0.00672860    -0.12800
C3437       C  0.74311732  0.88067751  0.00444731     0.05700
C3438       C  0.72388138  0.85440331  0.02035266    -0.08800
C3439       C  0.73048870  0.83929608  0.03812706     0.06500
C3440       C  0.75684343  0.85146228  0.04720219    -0.13100
Br3441     Br  0.81116557  0.93724655  0.62804617    -0.05200
Br3442     Br  0.86244629  0.88616709  0.98191060     0.00400
Br3443     Br  0.73347791  0.90241359  0.99029745     0.00900
Br3444     Br  0.76644498  0.84477595  0.61390725    -0.03500
Br3445     Br  0.86816952  0.95366008  0.66841768     0.01000
Br3446     Br  0.80057166  0.85608323  0.95075971    -0.02800
Br3447     Br  0.79606188  0.92869362  0.98632238    -0.03700
Br3448     Br  0.70299967  0.80277002  0.05405293     0.00300
C3449       C  0.51087862  0.90774837  0.54154432     0.01700
C3450       C  0.53689401  0.91979556  0.51884549     0.04500
C3451       C  0.57906623  0.94339123  0.03292242    -0.11600
C3452       C  0.56868391  0.91754349  0.04616084     0.23800
C3453       C  0.50309024  0.86572863  0.53049147    -0.12100
C3454       C  0.49331273  0.88010123  0.54083535     0.05200
C3455       C  0.58589162  0.90917375  0.04606175     0.27600
C3456       C  0.57764402  0.88532689  0.01736966    -0.12800
C3457       C  0.58888393  0.87386574  0.03066251     0.05700
C3458       C  0.61327797  0.88890905  0.05674901    -0.08800
C3459       C  0.62384271  0.91372305  0.08049309     0.06500
C3460       C  0.56161781  0.87905524  0.58621927    -0.13100
Br3461     Br  0.47874786  0.82787718  0.53177997    -0.05200
Br3462     Br  0.55667164  0.95271520  0.48401546     0.00400
Br3463     Br  0.56997113  0.83677138  0.01764372     0.00900
Br3464     Br  0.56473566  0.90542493  0.63848110    -0.03500
Br3465     Br  0.96577220  0.86911037  0.53484739     0.01000
Br3466     Br  0.61527607  0.96848532  0.00431326    -0.02800
Br3467     Br  0.55217656  0.86731410  0.95746272    -0.03700
Br3468     Br  0.60618258  0.89324030  0.64981445     0.00300
C3469       C  0.57479213  0.63874226  0.79778559     0.01700
C3470       C  0.56867422  0.65321876  0.83069893     0.04500
C3471       C  0.58431415  0.67979261  0.82210078    -0.11600
C3472       C  0.60661202  0.69160308  0.78178918     0.23800
C3473       C  0.61363682  0.67747842  0.75082956    -0.12100
C3474       C  0.59779173  0.65082249  0.75960784     0.05200
C3475       C  0.62148296  0.71864488  0.76965552     0.27600
C3476       C  0.60811976  0.72580394  0.74294654    -0.12800
C3477       C  0.61691492  0.75084290  0.75212138     0.05700
C3478       C  0.64234629  0.76982266  0.77383466    -0.08800
C3479       C  0.65749869  0.76341835  0.79367508     0.06500
C3480       C  0.64623607  0.73720543  0.79505867    -0.13100
Br3481     Br  0.64430396  0.69458929  0.69513494    -0.05200
Br3482     Br  0.54088593  0.63724985  0.89214457     0.00400
Br3483     Br  0.59135503  0.75704715  0.74951779     0.00900
Br3484     Br  0.66311248  0.72679574  0.83691348    -0.03500
Br3485     Br  0.60862402  0.63173677  0.72091435     0.01000
Br3486     Br  0.57437317  0.69954208  0.86379614    -0.02800
Br3487     Br  0.57477393  0.70050677  0.70588216    -0.03700
Br3488     Br  0.69186792  0.79033520  0.82454350     0.00300
C3489       C  0.88763347  0.98104263  0.80946349     0.01700
C3490       C  0.87712937  0.99091841  0.78004886     0.04500
C3491       C  0.84884425  0.97649995  0.77783726    -0.11600
C3492       C  0.83003206  0.95214985  0.80644676     0.23800
C3493       C  0.84083706  0.94407229  0.84111918    -0.12100
C3494       C  0.86855318  0.95988513  0.84797201     0.05200
C3495       C  0.79956086  0.93628522  0.80373783     0.27600
C3496       C  0.78613157  0.94519481  0.83326968    -0.12800
C3497       C  0.75810057  0.93078766  0.82966650     0.05700
C3498       C  0.74232459  0.90676887  0.79753741    -0.08800
C3499       C  0.75550808  0.89760548  0.76891239     0.06500
C3500       C  0.78350376  0.91189325  0.77240333    -0.13100
Br3501     Br  0.81859279  0.91048048  0.87732742    -0.05200
Br3502     Br  0.90076779  0.02607426  0.75537049     0.00400
Br3503     Br  0.74102862  0.94435510  0.86711769     0.00900
Br3504     Br  0.79950399  0.89709370  0.73553782    -0.03500
Br3505     Br  0.87874313  0.95803356  0.92401350     0.01000
Br3506     Br  0.83563031  0.98862706  0.73051784    -0.02800
Br3507     Br  0.80584668  0.97671909  0.88166187    -0.03700
Br3508     Br  0.73478417  0.86449973  0.72697947     0.00300
C3509       C  0.59724188  0.87440878  0.82219079     0.01700
C3510       C  0.61547914  0.90107368  0.83698483     0.04500
C3511       C  0.60762027  0.91690753  0.83947455    -0.11600
C3512       C  0.58237230  0.90688737  0.81997148     0.23800
C3513       C  0.56496503  0.88014581  0.80295639    -0.12100
C3514       C  0.57175015  0.86380776  0.80730931     0.05200
C3515       C  0.57442611  0.92401221  0.81392125     0.27600
C3516       C  0.54986612  0.91673733  0.83939330    -0.12800
C3517       C  0.54067950  0.93011730  0.82544964     0.05700
C3518       C  0.55833866  0.95534131  0.80241786    -0.08800
C3519       C  0.58305694  0.96330915  0.77670341     0.06500
C3520       C  0.58990496  0.94659106  0.77785524    -0.13100
Br3521     Br  0.53302936  0.86581730  0.76663583    -0.05200
Br3522     Br  0.65187946  0.91605252  0.84757366     0.00400
Br3523     Br  0.50292703  0.91201384  0.83206036     0.00900
Br3524     Br  0.61989874  0.95466200  0.72827323    -0.03500
Br3525     Br  0.54683661  0.82680711  0.78987605     0.01000
Br3526     Br  0.63191295  0.95190945  0.86972518    -0.02800
Br3527     Br  0.52785720  0.88985282  0.89682132    -0.03700
Br3528     Br  0.60990612  0.99883274  0.75288308     0.00300
C3529       C  0.86210139  0.60023361  0.60763656     0.01700
C3530       C  0.88688261  0.60975939  0.57993110     0.04500
C3531       C  0.89539691  0.59442447  0.57663593    -0.11600
C3532       C  0.87971094  0.56952108  0.60379365     0.23800
C3533       C  0.85503707  0.56052324  0.63283825    -0.12100
C3534       C  0.84603737  0.57536936  0.63293330     0.05200
C3535       C  0.89054980  0.55460900  0.60638553     0.27600
C3536       C  0.87883438  0.53007705  0.57738281    -0.12800
C3537       C  0.89046238  0.51743427  0.57849488     0.05700
C3538       C  0.91442977  0.52903968  0.60789853    -0.08800
C3539       C  0.92653512  0.55435739  0.63336234     0.06500
C3540       C  0.91405943  0.56600690  0.63581834    -0.13100
Br3541     Br  0.83385459  0.52912310  0.67765056    -0.05200
Br3542     Br  0.91013157  0.64491827  0.55048634     0.00400
Br3543     Br  0.87315337  0.48430815  0.53771324     0.00900
Br3544     Br  0.92946590  0.59808821  0.68116981    -0.03500
Br3545     Br  0.81126208  0.56160783  0.66699460     0.01000
Br3546     Br  0.92964081  0.60890563  0.53754298    -0.02800
Br3547     Br  0.84686483  0.51365989  0.53496523    -0.03700
Br3548     Br  0.96103709  0.57512224  0.66364631     0.00300
C3549       C  0.91089942  0.75458440  0.62786133     0.01700
C3550       C  0.90276884  0.76806474  0.60620322     0.04500
C3551       C  0.91657121  0.79461588  0.62041480    -0.11600
C3552       C  0.93603559  0.80724356  0.66364862     0.23800
C3553       C  0.94373232  0.79335255  0.68597407    -0.12100
C3554       C  0.93270968  0.76799834  0.66444552     0.05200
C3555       C  0.94578179  0.83370953  0.68810187     0.27600
C3556       C  0.97207835  0.85626787  0.67874189    -0.12800
C3557       C  0.97953964  0.88152158  0.68880807     0.05700
C3558       C  0.96018112  0.88510686  0.70238953    -0.08800
C3559       C  0.93370340  0.86163512  0.71559600     0.06500
C3560       C  0.92745612  0.83677561  0.71350393    -0.13100
Br3561     Br  0.96567172  0.80630165  0.75245652    -0.05200
Br3562     Br  0.86982220  0.74959167  0.56692586     0.00400
Br3563     Br  0.01639713  0.90999534  0.68186643     0.00900
Br3564     Br  0.89248467  0.80566507  0.73845828    -0.03500
Br3565     Br  0.94616580  0.75069398  0.68815431     0.01000
Br3566     Br  0.90609473  0.81242732  0.58528626    -0.02800
Br3567     Br  0.99759085  0.85258930  0.64743435    -0.03700
Br3568     Br  0.90358504  0.86053407  0.72701788     0.00300
C3569       C  0.74658920  0.61488450  0.62770650     0.01700
C3570       C  0.73309253  0.62289451  0.65936350     0.04500
C3571       C  0.70506403  0.60602775  0.66460875    -0.11600
C3572       C  0.68978226  0.58286622  0.62891558     0.23800
C3573       C  0.70363661  0.57569680  0.59371415    -0.12100
C3574       C  0.73147646  0.59053925  0.59682817     0.05200
C3575       C  0.65991126  0.56751480  0.62705340     0.27600
C3576       C  0.64144327  0.54091769  0.64336620    -0.12800
C3577       C  0.61369825  0.52783983  0.64872584     0.05700
C3578       C  0.60336632  0.54092285  0.63696235    -0.08800
C3579       C  0.62239222  0.56801150  0.62338491     0.06500
C3580       C  0.64969265  0.58038812  0.61433400    -0.13100
Br3581     Br  0.68602249  0.54833792  0.53372664    -0.05200
Br3582     Br  0.75310305  0.65822625  0.68996242     0.00400
Br3583     Br  0.58691765  0.98511155  0.61310515     0.00900
Br3584     Br  0.67297159  0.61576227  0.58451517    -0.03500
Br3585     Br  0.74864089  0.57706700  0.55932949     0.01000
Br3586     Br  0.68803827  0.61470738  0.72294699    -0.02800
Br3587     Br  0.65349431  0.52141060  0.65801051    -0.03700
Br3588     Br  0.61345126  0.59101465  0.62656319     0.00300
C3589       C  0.96118130  0.57978200  0.85081247     0.01700
C3590       C  0.97342092  0.60264464  0.81656964     0.04500
C3591       C  0.96192005  0.61516141  0.81594608    -0.11600
C3592       C  0.93775885  0.60496585  0.84849192     0.23800
C3593       C  0.92511432  0.58186621  0.88077172    -0.12100
C3594       C  0.93603805  0.56880364  0.87969517     0.05200
C3595       C  0.92566277  0.61841570  0.84910852     0.27600
C3596       C  0.93910034  0.64184272  0.38022540    -0.12800
C3597       C  0.92821957  0.65457687  0.37394233     0.05700
C3598       C  0.90236699  0.64340735  0.85539752    -0.08800
C3599       C  0.88870962  0.61814045  0.82987028     0.06500
C3600       C  0.90052300  0.60593469  0.82510462    -0.13100
Br3601     Br  0.89253300  0.56783101  0.92754996    -0.05200
Br3602     Br  0.00532773  0.61694630  0.76654261     0.00400
Br3603     Br  0.94804294  0.69116642  0.39408036     0.00900
Br3604     Br  0.88097862  0.57149025  0.78846146    -0.03500
Br3605     Br  0.91065993  0.03006601  0.91952382     0.01000
Br3606     Br  0.97958121  0.64650922  0.76968649    -0.02800
Br3607     Br  0.97021559  0.65949021  0.42580402    -0.03700
Br3608     Br  0.85239667  0.59889663  0.80847202     0.00300
C3609       C  0.86105451  0.74608562  0.89397554     0.01700
C3610       C  0.85247481  0.75726807  0.39840432     0.04500
C3611       C  0.85611274  0.77931979  0.92647799    -0.11600
C3612       C  0.88123488  0.79899997  0.89923621     0.23800
C3613       C  0.89733918  0.79231892  0.87641874    -0.12100
C3614       C  0.88714188  0.76604905  0.87265464     0.05200
C3615       C  0.89265422  0.82723661  0.90179874     0.27600
C3616       C  0.88333930  0.83720618  0.86852227    -0.12800
C3617       C  0.89726536  0.86470393  0.86775240     0.05700
C3618       C  0.92201979  0.88262905  0.89667320    -0.08800
C3619       C  0.92463064  0.87104110  0.94280445     0.06500
C3620       C  0.91225101  0.84431717  0.94175913    -0.13100
Br3621     Br  0.93404244  0.81941690  0.85379930    -0.05200
Br3622     Br  0.81486314  0.72922694  0.39731982     0.00400
Br3623     Br  0.87827868  0.87541025  0.83764884     0.00900
Br3624     Br  0.88119763  0.83430347  0.51660812    -0.03500
Br3625     Br  0.90956339  0.75727895  0.84346092     0.01000
Br3626     Br  0.83602400  0.78859959  0.96986793    -0.02800
Br3627     Br  0.85090597  0.81319799  0.82675215    -0.03700
Br3628     Br  0.93346927  0.89520483  0.52001352     0.00300
C3629       C  0.61949267  0.55206484  0.93004034     0.01700
C3630       C  0.63985898  0.57967316  0.92388467     0.04500
C3631       C  0.66579457  0.59010718  0.90376180    -0.11600
C3632       C  0.67347467  0.57427831  0.89997109     0.23800
C3633       C  0.65471590  0.54782410  0.91478777    -0.12100
C3634       C  0.62841918  0.53732519  0.93216878     0.05200
C3635       C  0.70169754  0.58579580  0.88796974     0.27600
C3636       C  0.70935908  0.57658107  0.83999936    -0.12800
C3637       C  0.73364326  0.58123129  0.83991309     0.05700
C3638       C  0.75281475  0.60044268  0.87887233    -0.08800
C3639       C  0.74634231  0.60984277  0.40678563     0.06500
C3640       C  0.71981650  0.59804755  0.41940813    -0.13100
Br3641     Br  0.66393312  0.52477288  0.90485395    -0.05200
Br3642     Br  0.63446877  0.60476485  0.95017883     0.00400
Br3643     Br  0.74043871  0.56158841  0.78680225     0.00900
Br3644     Br  0.71199757  0.61104328  0.48894169    -0.03500
Br3645     Br  0.59889240  0.99063553  0.89950289     0.01000
Br3646     Br  0.69021533  0.62589877  0.87758317    -0.02800
Br3647     Br  0.68795278  0.55967031  0.77300613    -0.03700
Br3648     Br  0.77244247  0.64636710  0.42862920     0.00300
loop_ 
_geom_bond_atom_site_label_1 
_geom_bond_atom_site_label_2 
_geom_bond_distance 
_geom_bond_site_symmetry_2 
_ccdc_geom_bond_type 
C1            C3   1.638       .  S
C1            C5   1.645       .  S
C1            C4   1.642       .  S
C1           C25   2.155   1_556  S
C2            C6   1.631       .  S
C2            C8   1.658       .  S
C2            C7   1.638       .  S
C2           C24   2.160       .  S
C3           C11   1.374       .  A
C3          C462   1.549       .  A
C4           C15   1.377       .  A
C4          C463   1.542       .  A
C5           C19   1.389       .  A
C5          C464   1.543       .  A
C6            C9   1.368       .  A
C6          C459   1.553       .  A
C7           C13   1.376       .  A
C7          C460   1.542       .  A
C8           C16   1.392       .  A
C8          C461   1.548       .  A
C9           N10   1.353       .  A
C9           H22   1.080       .  S
N10         C467   1.353       .  A
N10         C406   1.424       .  S
C11         N466   1.357       .  A
C11          H12   1.078       .  S
C13         N470   1.360       .  A
C13          H23   1.080       .  S
N14          C15   1.363       .  A
N14         C469   1.355       .  A
N14         C902   1.440       .  S
C15          H21   1.078       .  S
C16         N473   1.369       .  A
C16          H18   1.082       .  S
N17          C19   1.364       .  A
N17         C472   1.366       .  A
N17         C873   1.463       .  S
C19          H20   1.076   1_556  S
C24          C26   1.653       .  S
C24          C28   1.620       .  S
C24          C27   1.643       .  S
C25          C29   1.633       .  S
C25          C31   1.621       .  S
C25          C30   1.642       .  S
C26          C34   1.380       .  A
C26          C29   1.552       .  A
C27          C38   1.386       .  A
C27          C30   1.549       .  A
C28          C42   1.358       .  A
C28          C31   1.544       .  A
C29          C32   1.371       .  A
C30          C36   1.370       .  A
C31          C39   1.363       .  A
C32          N33   1.355       .  A
C32          H45   1.080       .  S
N33          C34   1.362       .  A
N33         C337   1.439       .  S
C34          H35   1.078       .  S
C36          N37   1.357       .  A
C36          H46   1.071       .  S
N37          C38   1.361       .  A
N37         C377   1.448       .  S
C38          H44   1.079       .  S
C39          N40   1.355       .  A
C39          H41   1.082       .  S
N40          C42   1.354       .  A
N40         C357   1.415       .  S
C42          H43   1.082       .  S
O47         Zr59   2.483       .  S
O47          C49   1.285       .  A
O48         Zr85   2.397       .  S
O48          C49   1.275       .  A
C49         C326   1.504       .  S
O50         Zr62   2.377       .  S
O50          C52   1.274       .  A
O51         Zr86   2.437       .  S
O51        C1876   1.290       .  A
C52        O1875   1.296       .  A
C52         C277   1.435       .  S
O53         Zr62   2.452       .  S
O53          C55   1.288       .  A
O54         Zr85   2.590       .  S
O54         C967   1.311       .  A
C55         O966   1.314       .  A
C55         C437   1.515       .  S
O56         Zr59   2.473       .  S
O56        C2794   1.262       .  A
O57         Zr86   2.510       .  S
O57          C58   1.262       .  A
C58        O2792   1.263       .  A
C58        C1046   1.359       .  S
Zr59        O972   2.435       .  S
Zr59       O1885   2.496       .  S
Zr59        O977   2.245       .  S
Zr59        O978   2.336       .  S
Zr59       O1913   2.594   1_455  S
Zr59       O1915   2.352       .  S
O60        Zr971   2.433       .  S
O60         H103   0.987       .  S
O61       Zr1883   2.494       .  S
O61         H102   0.980       .  S
O61         H106   0.990       .  S
Zr62         O63   2.428       .  S
Zr62         O64   2.426       .  S
Zr62         O66   2.258       .  S
Zr62         O65   2.401       .  S
Zr62         O90   2.337       .  S
Zr62         O92   2.449       .  S
O63         H104   0.990       .  S
O63         H107   0.987       .  S
O64          H97   0.990       .  S
O65        Zr971   2.254       .  S
O65        Zr997   2.313   1_545  S
O66        Zr971   2.338       .  S
O66       Zr1910   2.386       .  S
O66          H93   0.909       .  S
O67         Zr79   2.466       .  S
O67          C69   1.283       .  A
O68        Zr998   2.771       .  S
O68          C69   1.340       .  A
C69         C297   1.592       .  S
O70         Zr82   2.375   1_565  S
O70        C1440   1.278       .  A
O71         Zr85   2.339   1_655  S
O71        C2352   1.266       .  A
C72        O1438   1.275       .  A
C72        O2351   1.276       .  A
C72        C1488   1.340       .  S
O73         Zr82   2.491       .  S
O73          C75   1.294       .  A
O74         Zr86   2.407       .  S
O74          C75   1.278       .  A
C75         C397   1.499       .  S
O76         Zr79   2.484       .  S
O76          C78   1.276       .  A
O77       Zr1909   2.668       .  S
O77          C78   1.330       .  A
C78         C426   1.586       .  S
Zr79         O80   2.503       .  S
Zr79         O81   2.389       .  S
Zr79         O87   2.396       .  S
Zr79         O91   2.428       .  S
Zr79         O89   2.362       .  S
Zr79         O88   2.219       .  S
O80         H100   0.989       .  S
O80         H105   0.976       .  S
O81         H101   0.981       .  S
Zr82        O995   2.439       .  S
Zr82       O1908   2.445       .  S
Zr82       O1000   2.346       .  S
Zr82        O999   2.243       .  S
Zr82       O1916   2.273       .  S
Zr82       O1914   2.403       .  S
O83        Zr994   2.436       .  S
O83          H99   0.987       .  S
O84       Zr1906   2.454   1_455  S
O84          H98   0.984       .  S
O84        H2388   0.988       .  S
Zr85       O1901   2.649   1_455  S
Zr85        O977   2.317       .  S
Zr85       O1002   2.538       .  S
Zr85       O1915   2.305       .  S
Zr85       O1912   2.243   1_455  S
Zr86        O980   2.726       .  S
Zr86       O1890   2.373       .  S
Zr86        O999   2.294       .  S
Zr86       O1001   2.463       .  S
Zr86       O1916   2.356       .  S
O87        Zr994   2.193       .  S
O87        Zr998   2.257       .  S
O87          H95   0.948       .  S
O88        Zr994   2.290       .  S
O88       Zr1909   2.238       .  S
O89       Zr1883   2.581       .  S
O89        Zr998   2.481       .  S
O90       Zr1906   2.421   1_455  S
O90        Zr997   2.571   1_545  S
O90          H94   0.947       .  S
O91       Zr1883   2.358       .  S
O91       Zr1909   2.306       .  S
O91          H96   0.960       .  S
O92       Zr1906   2.272   1_455  S
O92       Zr1910   2.352       .  S
H108       O2364   0.980       .  S
O109       Zr121   2.444       .  S
O109        C111   1.271   1_655  A
O110       Zr147   2.501       .  S
O110        C111   1.289       .  A
C111        C257   1.519       .  S
O112       Zr124   2.476       .  S
O112        C114   1.291       .  A
O113       Zr148   2.735   1_545  S
O113       C1938   1.338       .  A
C114       O1937   1.336   1_455  A
C114        C217   1.620       .  S
O115       Zr124   2.484       .  S
O115        C117   1.277       .  A
O116      Zr1059   2.605       .  S
O116        C117   1.304   1_565  A
C117        C386   1.558       .  S
O118       Zr577   2.553       .  S
O118       C2856   1.278       .  A
O119       Zr604   2.471       .  S
O119        C120   1.248       .  A
C120       O2854   1.270       .  A
C120       C1440   1.347       .  S
Zr121       O574   2.550   1_554  S
Zr121      O1490   2.377   1_654  S
Zr121      O2403   2.577   1_554  S
Zr121      O1040   2.490       .  S
Zr121      O1975   2.382       .  S
Zr121      O1977   2.289       .  S
Zr121      O1039   2.279   1_655  S
O122      Zr1489   2.406   1_455  S
O122        H165   0.988       .  S
O123      Zr2401   2.514       .  S
O123        H164   0.982       .  S
O123        H168   0.989       .  S
Zr124       O125   2.483   1_554  S
Zr124       O126   2.421       .  S
Zr124       O128   2.321   1_445  S
Zr124       O127   2.388   1_545  S
Zr124       O152   2.311   1_445  S
Zr124       O154   2.335   1_455  S
O125        H166   0.990       .  S
O125        H169   0.990   1_556  S
O126        H159   0.982       .  S
O127      Zr1033   2.357   1_455  S
O127      Zr1059   2.313       .  S
O128      Zr1033   2.474       .  S
O128      Zr1972   2.441       .  S
O128        H155   0.907   1_554  S
O129       Zr141   2.371       .  S
O129        C131   1.267       .  A
O130      Zr1060   2.405       .  S
O130        C131   1.286       .  A
C131        C237   1.404       .  S
O132       Zr144   2.298       .  S
O132       C1046   1.251       .  A
O133       Zr147   2.391       .  S
O133       C1958   1.276       .  A
C134       O1044   1.264       .  A
C134       O1957   1.271       .  A
C134        C970   1.374       .  S
O135       Zr144   2.563       .  S
O135        C137   1.300       .  A
O136       Zr148   2.442   1_545  S
O136        C137   1.276       .  A
C137        C346   1.541       .  S
O138       Zr141   2.483       .  S
O138        C140   1.291       .  A
O139      Zr1971   2.521       .  S
O139        C140   1.300       .  A
C140        C366   1.515       .  S
Zr141       O142   2.469       .  S
Zr141       O143   2.447       .  S
Zr141       O149   2.472       .  S
Zr141       O153   2.375       .  S
Zr141       O151   2.328       .  S
Zr141       O150   2.318       .  S
O142        H162   0.989       .  S
O142        H167   0.988       .  S
O143        H163   0.990       .  S
Zr144      O1057   2.404   1_545  S
Zr144      O1970   2.455       .  S
Zr144      O1062   2.461   1_545  S
Zr144      O1061   2.248   1_545  S
Zr144      O1976   2.374   1_545  S
Zr144      O1978   2.213       .  S
O145      Zr1056   2.406       .  S
O145        H161   0.967       .  S
O146      Zr1968   2.452       .  S
O146        H160   0.979       .  S
O146       H1994   0.985   1_655  S
Zr147      O1028   2.614       .  S
Zr147      O1963   2.495   1_455  S
Zr147      O1064   2.290   1_455  S
Zr147      O1977   2.344   1_455  S
Zr147      O1039   2.201       .  S
Zr147      O1974   2.394   1_455  S
Zr148       O575   2.479   1_554  S
Zr148      O1042   2.450       .  S
Zr148      O1952   2.442       .  S
Zr148      O1061   2.304       .  S
Zr148      O1063   2.370       .  S
Zr148      O1978   2.214   1_565  S
O149      Zr1056   2.278       .  S
O149      Zr1060   2.329       .  S
O149        H157   0.971       .  S
O150      Zr1056   2.404       .  S
O150      Zr1971   2.385       .  S
O151      Zr1945   2.383       .  S
O151      Zr1060   2.474       .  S
O152      Zr1968   2.362   1_565  S
O152      Zr1059   2.266   1_655  S
O152        H156   0.927       .  S
O153      Zr1945   2.285       .  S
O153      Zr1971   2.304       .  S
O153        H158   0.945       .  S
O154      Zr1968   2.199       .  S
O154      Zr1972   2.210   1_545  S
H170       O1970   0.983       .  S
C171        C173   1.628       .  S
C171        C175   1.703       .  S
C171        C174   1.592       .  S
C171        C651   2.176       .  S
C172        C176   1.632       .  S
C172        C178   1.672       .  S
C172        C177   1.620       .  S
C172        C194   2.158       .  S
C173        C181   1.375       .  A
C173        C176   1.541       .  A
C174        C185   1.344       .  A
C174        C177   1.551       .  A
C175        C189   1.422       .  A
C175        C178   1.556       .  A
C176        C179   1.371       .  A
C177        C183   1.365       .  A
C178        C186   1.403       .  A
C179        N180   1.351       .  A
C179        H192   1.066       .  S
N180        C181   1.352       .  A
N180        C317   1.435       .  S
C181        H182   1.073       .  S
C183        N184   1.351       .  A
C183        H193   1.083       .  S
N184        C185   1.338       .  A
N184        C286   1.395       .  S
C185        H191   1.083       .  S
C186        N187   1.370       .  A
C186        H188   1.077       .  S
N187        C189   1.382       .  A
N187        C306   1.497       .  S
C189        H190   1.079       .  S
C194        C196   1.633       .  S
C194        C198   1.601       .  S
C194        C197   1.678       .  S
C195        C199   1.627       .  S
C195        C201   1.612       .  S
C195        C200   1.689       .  S
C195        C627   2.172       .  S
C196        C204   1.370       .  A
C196        C199   1.539       .  A
C197        C208   1.412       .  A
C197        C200   1.558       .  A
C198        C212   1.344       .  A
C198        C201   1.547       .  A
C199        C202   1.371       .  A
C200        C206   1.410       .  A
C201        C209   1.349       .  A
C202        N203   1.349       .  A
C202        H215   1.070       .  S
N203        C204   1.354       .  A
N203        C266   1.432       .  S
C204        H205   1.074       .  S
C206        N207   1.374       .  A
C206        H216   1.073       .  S
N207        C208   1.376       .  A
N207        C226   1.497       .  S
C208        H214   1.082       .  S
C209        N210   1.348       .  A
C209        H211   1.081       .  S
N210        C212   1.343       .  A
N210        C246   1.389       .  S
C212        H213   1.081       .  S
C217        C218   1.437       .  A
C217        C678   1.430       .  A
C218        C219   1.438       .  A
C218       Br230   1.875       .  S
C219        C676   1.412       .  A
C219       Br234   1.931       .  S
C220        C221   1.433       .  A
C220        C675   1.420       .  A
C220        C223   1.593       .  S
C221        C222   1.451       .  A
C221       Br229   1.906       .  S
C222        C673   1.420       .  A
C222      Br2057   1.890   1_455  S
C223        C224   1.435       .  A
C223        C228   1.443       .  A
C224        C225   1.443       .  A
C224       Br691   1.930       .  S
C225        C226   1.418       .  A
C225       Br687   1.925       .  S
C226        C227   1.419       .  A
C227        C228   1.447       .  A
C227       Br236   1.929       .  S
C228       Br232   1.935       .  S
Br231       C681   1.922       .  S
Br233      C2046   1.904       .  S
Br235       C680   1.927       .  S
C237        C242   1.390       .  A
C237        C694   1.403       .  A
C238        C239   1.381       .  A
C238        C693   1.397       .  A
C238       Br250   1.924       .  S
C239        C240   1.405       .  A
C239       Br254   1.938       .  S
C240        C697   1.406       .  A
C240        C243   1.419       .  S
C241        C242   1.377       .  A
C241        C696   1.407       .  A
C241       Br249   1.936       .  S
C242       Br253   1.927       .  S
C243        C244   1.405       .  A
C243        C248   1.407       .  A
C244        C245   1.378       .  A
C244       Br255   1.940       .  S
C245        C246   1.404       .  A
C245       Br251   1.934       .  S
C246        C247   1.392       .  A
C247        C248   1.379       .  A
C247       Br256   1.926       .  S
C248       Br708   1.937       .  S
Br252       C704   1.935       .  S
C257        C258   1.393       .  A
C257        C262   1.412   1_455  A
C258        C715   1.404       .  A
C258       Br270   1.868   1_554  S
C259        C260   1.418       .  A
C259        C714   1.418       .  A
C259       Br274   1.919       .  S
C260        C717   1.416       .  A
C260        C263   1.509       .  S
C261        C262   1.428   1_455  A
C261        C716   1.422       .  A
C261       Br269   1.940   1_455  S
C262      Br2097   1.900       .  S
C263        C264   1.415       .  A
C263        C724   1.421       .  A
C264        C265   1.391       .  A
C264       Br275   1.897       .  S
C265        C266   1.394       .  A
C265       Br271   1.934       .  S
C266        C267   1.407       .  A
C267        C724   1.416       .  A
C267       Br732   1.927       .  S
C268        C719   1.423       .  A
C268        C723   1.411       .  A
C268       Br272   1.939       .  S
Br273      C2086   1.908       .  S
Br276       C723   1.928       .  S
C277        C278   1.398       .  A
C277        C282   1.412       .  A
C278        C279   1.383       .  A
C278       Br290   1.909       .  S
C279        C280   1.408       .  A
C279       Br294   1.945       .  S
C280        C281   1.398       .  A
C280        C283   1.437       .  S
C281        C282   1.390       .  A
C281       Br289   1.936       .  S
C282       Br293   1.923       .  S
C283        C284   1.409       .  A
C283        C288   1.410       .  A
C284        C285   1.377       .  A
C284       Br295   1.934       .  S
C285        C286   1.400       .  A
C285       Br291   1.939       .  S
C286        C287   1.394       .  A
C287        C288   1.389       .  A
C287       Br296   1.922       .  S
C288       Br292   1.930       .  S
C297        C298   1.415       .  A
C297        C302   1.429       .  A
C298        C299   1.454       .  A
C298       Br310   1.894       .  S
C299        C300   1.437       .  A
C299       Br314   1.911       .  S
C300        C301   1.415       .  A
C300        C303   1.584       .  S
C301        C302   1.427       .  A
C301       Br309   1.912       .  S
C302       Br313   1.916       .  S
C303        C304   1.432       .  A
C303        C308   1.440       .  A
C304        C305   1.443       .  A
C304       Br315   1.930       .  S
C305        C306   1.420       .  A
C305       Br311   1.923       .  S
C306        C307   1.418       .  A
C307        C308   1.444       .  A
C307       Br316   1.926       .  S
C308       Br312   1.935       .  S
C317        C318   1.403       .  A
C317        C322   1.395       .  A
C318        C319   1.412       .  A
C318       Br330   1.926       .  S
C319        C320   1.422       .  A
C319       Br334   1.922       .  S
C320        C321   1.421       .  A
C320        C323   1.521       .  S
C321        C322   1.406       .  A
C321       Br329   1.888       .  S
C322       Br333   1.935       .  S
C323        C324   1.424       .  A
C323        C328   1.427       .  A
C324        C325   1.401       .  A
C324       Br335   1.929       .  S
C325        C326   1.408       .  A
C325       Br331   1.931       .  S
C326        C327   1.415       .  A
C327        C328   1.419       .  A
C327       Br336   1.930       .  S
C328       Br332   1.936       .  S
C337        C338   1.407       .  A
C337        C342   1.399       .  A
C338        C339   1.411       .  A
C338       Br350   1.927       .  S
C339        C340   1.425       .  A
C339       Br354   1.937       .  S
C340        C341   1.420       .  A
C340        C343   1.514       .  S
C341        C342   1.407       .  A
C341       Br349   1.909       .  S
C342       Br353   1.932       .  S
C343        C344   1.415       .  A
C343        C348   1.405       .  A
C344        C345   1.426       .  A
C344       Br355   1.936       .  S
C345        C346   1.428       .  A
C345       Br351   1.921   1_545  S
C346        C347   1.427       .  A
C347        C348   1.413       .  A
C347       Br356   1.902       .  S
C348       Br352   1.939       .  S
C357        C358   1.396       .  A
C357        C362   1.397       .  A
C358        C359   1.383       .  A
C358       Br370   1.936       .  S
C359        C360   1.417       .  A
C359       Br374   1.911       .  S
C360        C361   1.427       .  A
C360        C363   1.498       .  S
C361        C362   1.404       .  A
C361       Br369   1.930       .  S
C362       Br373   1.926       .  S
C363        C364   1.399       .  A
C363        C368   1.406       .  A
C364        C365   1.407       .  A
C364       Br375   1.896       .  S
C365        C366   1.426       .  A
C365       Br371   1.926       .  S
C366        C367   1.432       .  A
C367        C368   1.408       .  A
C367       Br376   1.928       .  S
C368       Br372   1.943       .  S
C377        C378   1.407       .  A
C377        C382   1.409       .  A
C378        C379   1.415       .  A
C378       Br390   1.928       .  S
C379        C380   1.424       .  A
C379       Br394   1.937       .  S
C380        C381   1.424       .  A
C380        C383   1.516       .  S
C381        C382   1.410       .  A
C381       Br389   1.940       .  S
C382       Br393   1.930       .  S
C383        C384   1.411       .  A
C383        C388   1.409       .  A
C384        C385   1.426       .  A
C384       Br395   1.935       .  S
C385        C386   1.434       .  A
C385      Br1303   1.921   1_545  S
C386        C387   1.441       .  A
C387        C388   1.416       .  A
C387       Br396   1.923       .  S
C388       Br392   1.954       .  S
Br391      C1297   1.919       .  S
C397        C398   1.423       .  A
C397        C402   1.416       .  A
C398        C399   1.409       .  A
C398       Br410   1.929       .  S
C399        C400   1.409       .  A
C399       Br414   1.938       .  S
C400        C401   1.409       .  A
C400        C403   1.491       .  S
C401        C402   1.406       .  A
C401       Br409   1.930       .  S
C402      Br1325   1.925       .  S
C403        C408   1.419       .  A
C403        C860   1.419       .  A
C404        C405   1.410       .  A
C404        C859   1.425       .  A
C404       Br415   1.915       .  S
C405        C862   1.401       .  A
C405       Br411   1.935       .  S
C406        C407   1.405       .  A
C406        C861   1.396       .  A
C407        C408   1.401       .  A
C407       Br416   1.930       .  S
C408       Br412   1.935       .  S
Br413      C1314   1.924       .  S
C417        C422   1.410       .  A
C417        C874   1.416       .  A
C417        N473   1.461       .  S
C418        C873   1.412       .  A
C418        C875   1.427       .  A
C418       Br430   1.924       .  S
C419        C420   1.419       .  A
C419        C874   1.425       .  A
C419       Br434   1.929       .  S
C420        C421   1.414       .  A
C420        C423   1.522       .  S
C421        C422   1.416       .  A
C421       Br429   1.926       .  S
C422       Br433   1.921       .  S
C423        C424   1.408       .  A
C423        C428   1.396       .  A
C424        C425   1.436       .  A
C424       Br435   1.938       .  S
C425        C426   1.448       .  A
C425       Br431   1.912       .  S
C426        C427   1.419       .  A
C427        C428   1.409       .  A
C427       Br892   1.881       .  S
C428       Br888   1.914       .  S
Br432       C884   1.933   1_554  S
Br436       C883   1.853   1_554  S
C437        C438   1.427       .  A
C437        C442   1.427       .  A
C438        C439   1.395       .  A
C438       Br450   1.925       .  S
C439        C440   1.395       .  A
C439       Br454   1.934       .  S
C440        C441   1.407       .  A
C440        C443   1.486       .  S
C441        C442   1.420       .  A
C441       Br449   1.926       .  S
C442      Br1365   1.909   1_545  S
C443        C444   1.412       .  A
C443        C904   1.414       .  A
C444        C445   1.406       .  A
C444       Br455   1.906       .  S
C445        C446   1.401       .  A
C445       Br451   1.927       .  S
C446        C903   1.405       .  A
C446        N470   1.426       .  S
C447        C448   1.396       .  A
C447        C902   1.406       .  A
C447       Br456   1.930       .  S
C448        C899   1.412       .  A
C448       Br452   1.916       .  S
Br453      C1354   1.901       .  S
C457        C459   1.630       .  S
C457        C461   1.648       .  S
C457        C460   1.617       .  S
C457        C481   2.153       .  S
C458        C462   1.643       .  S
C458        C464   1.657       .  S
C458        C463   1.622       .  S
C458        C480   2.163       .  S
C459        C467   1.366       .  A
C460        C471   1.357       .  A
C461        C475   1.386       .  A
C462        C465   1.379       .  A
C463        C469   1.365       .  A
C464        C472   1.384       .  A
C465        N466   1.360       .  A
C465        H478   1.081       .  S
N466        C862   1.442       .  S
C467        H468   1.080       .  S
C469        H479   1.081       .  S
N470        C471   1.352       .  A
C471        H477   1.079       .  S
C472        H474   1.065       .  S
N473        C475   1.364       .  A
C475        H476   1.082       .  S
C480        C482   1.650       .  S
C480        C484   1.634       .  S
C480        C483   1.645       .  S
C481        C485   1.646       .  S
C481        C487   1.624       .  S
C481        C486   1.643       .  S
C482        C490   1.384       .  A
C482        C485   1.551       .  A
C483        C494   1.386       .  A
C483        C486   1.543       .  A
C484        C498   1.361       .  A
C484        C487   1.544       .  A
C485        C488   1.384       .  A
C486        C492   1.376       .  A
C487        C495   1.369       .  A
C488        N489   1.361       .  A
C488        H501   1.080       .  S
N489        C490   1.363       .  A
N489        C793   1.451       .  S
C490        H491   1.079       .  S
C492        N493   1.363       .  A
C492        H502   1.079       .  S
N493        C494   1.363       .  A
N493        C833   1.451       .  S
C494        H500   1.081       .  S
C495        N496   1.357       .  A
C495        H497   1.081       .  S
N496        C498   1.362       .  A
N496        C813   1.434       .  S
C498        H499   1.083       .  S
O503       Zr515   2.513       .  S
O503        C505   1.291       .  A
O504       Zr541   2.468       .  S
O504        C505   1.277       .  A
C505        C782   1.531       .  S
O506       Zr518   2.379       .  S
O506        C508   1.269       .  A
O507       Zr542   2.470       .  S
O507       C2332   1.298       .  A
C508       O2331   1.297       .  A
C508        C733   1.465       .  S
O509       Zr518   2.399       .  S
O509        C511   1.278       .  A
O510       Zr541   2.724       .  S
O510       C1423   1.339       .  A
C511       O1422   1.318       .  A
C511        C893   1.534       .  S
O512       Zr515   2.475       .  S
O512       C3250   1.263       .  A
O513       Zr542   2.493       .  S
O513        C514   1.259       .  A
C514       O3248   1.262       .  A
C514       C1502   1.380       .  S
Zr515      O1428   2.429       .  S
Zr515      O2341   2.502       .  S
Zr515      O1433   2.252       .  S
Zr515      O1434   2.331       .  S
Zr515      O2369   2.593   1_455  S
Zr515      O2371   2.357       .  S
O516      Zr1427   2.465   1_545  S
O516        H559   0.992       .  S
O517      Zr2339   2.517       .  S
O517        H558   0.984       .  S
O517        H562   0.981       .  S
Zr518       O519   2.455       .  S
Zr518       O520   2.425       .  S
Zr518       O522   2.348       .  S
Zr518       O521   2.397       .  S
Zr518       O546   2.395       .  S
Zr518       O548   2.444       .  S
O519        H560   0.991       .  S
O519        H563   0.986       .  S
O520        H553   0.990       .  S
O521      Zr1427   2.229   1_545  S
O521      Zr1453   2.366   1_545  S
O522      Zr1427   2.387   1_545  S
O522      Zr2366   2.533   1_455  S
O522        H549   0.917       .  S
O523       Zr535   2.477       .  S
O523        C525   1.282       .  A
O524      Zr1454   2.768       .  S
O524        C525   1.344       .  A
C525        C753   1.597       .  S
O526       Zr538   2.418   1_565  S
O526        C984   1.282       .  A
O527       Zr541   2.428   1_655  S
O527       C1896   1.281       .  A
C528        O982   1.280       .  A
C528       O1895   1.268       .  A
C528       C1032   1.351       .  S
O529       Zr538   2.543       .  S
O529        C531   1.304       .  A
O530       Zr542   2.420       .  S
O530        C531   1.279       .  A
C531        C853   1.523       .  S
O532       Zr535   2.507       .  S
O532        C534   1.275       .  A
O533      Zr2365   2.705       .  S
O533        C534   1.339       .  A
C534        C882   1.619       .  S
Zr535       O536   2.524       .  S
Zr535       O537   2.420       .  S
Zr535       O543   2.411       .  S
Zr535       O547   2.416       .  S
Zr535       O545   2.378       .  S
Zr535       O544   2.247       .  S
O536        H556   0.986       .  S
O536        H561   0.987       .  S
O537        H557   0.983       .  S
Zr538      O1451   2.434       .  S
Zr538      O2364   2.427       .  S
Zr538      O1455   2.198       .  S
Zr538      O2372   2.273       .  S
Zr538      O2370   2.413       .  S
Zr538      O1456   2.282       .  S
O539      Zr1450   2.444       .  S
O539        H555   0.984       .  S
O540      Zr2362   2.420   1_455  S
O540        H554   0.982       .  S
O540       H1932   0.980       .  S
Zr541      O2357   2.743   1_455  S
Zr541      O1433   2.313       .  S
Zr541      O1458   2.530       .  S
Zr541      O2371   2.290       .  S
Zr541      O2368   2.261   1_455  S
Zr542      O1436   2.778       .  S
Zr542      O2346   2.380       .  S
Zr542      O1455   2.265       .  S
Zr542      O1457   2.480       .  S
Zr542      O2372   2.346       .  S
O543      Zr1450   2.201       .  S
O543      Zr1454   2.267       .  S
O543        H551   0.951       .  S
O544      Zr1450   2.311       .  S
O544      Zr2365   2.266       .  S
O545      Zr2339   2.578       .  S
O545      Zr1454   2.452       .  S
O546      Zr2362   2.458   1_455  S
O546      Zr1453   2.583   1_545  S
O546        H550   0.951       .  S
O547      Zr2339   2.354       .  S
O547      Zr2365   2.294       .  S
O547        H552   0.955       .  S
O548      Zr2362   2.321   1_455  S
O548      Zr2366   2.354   1_455  S
H564       O1908   0.983       .  S
O565       Zr577   2.496   1_455  S
O565        C567   1.280       .  A
O566       Zr603   2.406       .  S
O566        C567   1.266       .  A
C567        C713   1.496       .  S
O568       Zr580   2.460       .  S
O568        C570   1.281       .  A
O569       Zr604   2.721   1_545  S
O569       C2394   1.335       .  A
C570       O2393   1.334   1_455  A
C570        C673   1.601       .  S
O571       Zr580   2.459       .  S
O571        C573   1.273       .  A
O572      Zr1515   2.588   1_545  S
O572        C573   1.297       .  A
C573        C842   1.540       .  S
O574       C3312   1.266       .  A
O575        C576   1.247       .  A
C576       O3310   1.275       .  A
C576        C984   1.350       .  S
Zr577      O1034   2.374   1_655  S
Zr577      O1947   2.546       .  S
Zr577      O1495   2.348   1_655  S
Zr577      O1496   2.472       .  S
Zr577      O2433   2.262       .  S
Zr577      O2431   2.320       .  S
O578      Zr1033   2.385   1_456  S
O578        H621   0.993       .  S
O579      Zr1945   2.527   1_556  S
O579        H620   0.990       .  S
O579        H624   0.989       .  S
Zr580       O581   2.397       .  S
Zr580       O582   2.443       .  S
Zr580       O584   2.312   1_445  S
Zr580       O608   2.318   1_445  S
Zr580       O610   2.358   1_455  S
Zr580       O583   2.286   1_545  S
O581        H622   0.987       .  S
O581        H625   0.986       .  S
O582        H615   0.990       .  S
O583      Zr1489   2.318   1_455  S
O583      Zr1515   2.200       .  S
O584      Zr1489   2.476       .  S
O584      Zr2428   2.446       .  S
O584        H611   0.902   1_565  S
O585       Zr597   2.346       .  S
O585        C587   1.262       .  A
O586      Zr1516   2.421       .  S
O586        C587   1.287       .  A
C587        C693   1.400       .  S
O588       Zr600   2.316       .  S
O588       C1502   1.252       .  A
O589       Zr603   2.374       .  S
O589       C2414   1.268       .  A
C590       O1500   1.252       .  A
C590       O2413   1.268       .  A
C590       C1426   1.370       .  S
O591       Zr600   2.582       .  S
O591        C593   1.305       .  A
O592       Zr604   2.410   1_545  S
O592        C593   1.277       .  A
C593        C802   1.541       .  S
O594       Zr597   2.477       .  S
O594        C596   1.291       .  A
O595      Zr2427   2.537       .  S
O595        C596   1.303       .  A
C596        C822   1.528       .  S
Zr597       O598   2.466       .  S
Zr597       O599   2.437       .  S
Zr597       O605   2.474       .  S
Zr597       O606   2.388       .  S
Zr597       O609   2.396       .  S
Zr597       O607   2.232       .  S
O598        H618   0.990       .  S
O598        H623   0.989       .  S
O599        H619   0.991       .  S
Zr600      O1513   2.357   1_545  S
Zr600      O2426   2.475       .  S
Zr600      O1517   2.266   1_545  S
Zr600      O2432   2.345   1_545  S
Zr600      O1518   2.399   1_545  S
Zr600      O2434   2.186       .  S
O601      Zr1512   2.394       .  S
O601        H617   0.988       .  S
O602      Zr2424   2.474       .  S
O602        H616   0.987       .  S
O602       H2450   0.982       .  S
Zr603      O1484   2.552       .  S
Zr603      O2419   2.521   1_455  S
Zr603      O1495   2.314       .  S
Zr603      O2430   2.485   1_455  S
Zr603      O1520   2.266   1_455  S
Zr603      O2433   2.352   1_455  S
Zr604      O1498   2.462       .  S
Zr604      O2408   2.479       .  S
Zr604      O1517   2.337       .  S
Zr604      O1519   2.483       .  S
Zr604      O2434   2.219   1_565  S
O605      Zr1512   2.252       .  S
O605      Zr1516   2.301       .  S
O605        H613   0.965       .  S
O606      Zr1512   2.463       .  S
O606      Zr2427   2.485       .  S
O607      Zr2401   2.308       .  S
O607      Zr1516   2.362       .  S
O608      Zr2424   2.506   1_565  S
O608      Zr1515   2.466   1_655  S
O608        H612   0.924       .  S
O609      Zr2401   2.255       .  S
O609      Zr2427   2.335       .  S
O609        H614   0.948       .  S
O610      Zr2424   2.309       .  S
O610      Zr2428   2.272   1_545  S
H626       O2426   0.987       .  S
C627        C629   1.647       .  S
C627        C631   1.689       .  S
C627        C630   1.596       .  S
C628        C632   1.632       .  S
C628        C634   1.678       .  S
C628        C633   1.624       .  S
C628        C650   2.163       .  S
C629        C637   1.385       .  A
C629        C632   1.551       .  A
C630        C641   1.352       .  A
C630        C633   1.542       .  A
C631        C645   1.415       .  A
C631        C634   1.552       .  A
C632        C635   1.379       .  A
C633        C639   1.370       .  A
C634        C642   1.406       .  A
C635        N636   1.348       .  A
C635        H648   1.073       .  S
N636        C637   1.353       .  A
N636        C773   1.446       .  S
C637        H638   1.069       .  S
C639        N640   1.352       .  A
C639        H649   1.076       .  S
N640        C641   1.340       .  A
N640        C742   1.412       .  S
C641        H647   1.080       .  S
C642        N643   1.369       .  A
C642        H644   1.075       .  S
N643        C645   1.379       .  A
N643        C762   1.493       .  S
C645        H646   1.080       .  S
C650        C652   1.637   1_556  S
C650        C654   1.589       .  S
C650        C653   1.685   1_556  S
C651        C655   1.651       .  S
C651        C657   1.615       .  S
C651        C656   1.691       .  S
C652        C660   1.377   1_554  A
C652        C655   1.548       .  A
C653        C664   1.413   1_554  A
C653        C656   1.551       .  A
C654        C668   1.347       .  A
C654        C657   1.548   1_556  A
C655        C658   1.392       .  A
C656        C662   1.416       .  A
C657        C665   1.362       .  A
C658        N659   1.360       .  A
C658        H671   1.075       .  S
N659        C660   1.354   1_554  A
N659        C722   1.457       .  S
C660        H661   1.074       .  S
C662        N663   1.380       .  A
C662        H672   1.078       .  S
N663        C664   1.375   1_554  A
N663        C682   1.503       .  S
C664        H670   1.076       .  S
C665        N666   1.345       .  A
C665        H667   1.079       .  S
N666        C668   1.332   1_554  A
N666        C702   1.392       .  S
C668        H669   1.080       .  S
C673        C674   1.427       .  A
C674        C675   1.437       .  A
C674       Br686   1.896       .  S
C675       Br690   1.913       .  S
C676        C677   1.435       .  A
C676        C679   1.590       .  S
C677        C678   1.460       .  A
C677       Br685   1.911   1_554  S
C678      Br2513   1.901   1_455  S
C679        C680   1.432       .  A
C679        C684   1.439       .  A
C680        C681   1.445       .  A
C681        C682   1.421       .  A
C682        C683   1.424       .  A
C683        C684   1.447       .  A
C683       Br692   1.926   1_554  S
C684       Br688   1.935   1_554  S
Br689      C2502   1.899       .  S
C693        C698   1.385       .  A
C694        C695   1.386   1_554  A
C694       Br706   1.927   1_554  S
C695        C696   1.403   1_556  A
C695       Br710   1.936       .  S
C696        C699   1.425       .  S
C697        C698   1.377       .  A
C697       Br705   1.938       .  S
C698       Br709   1.913       .  S
C699        C700   1.411   1_554  A
C699        C704   1.406       .  A
C700        C701   1.379       .  A
C700       Br711   1.943       .  S
C701        C702   1.398   1_556  A
C701       Br707   1.932       .  S
C702        C703   1.396       .  A
C703        C704   1.385       .  A
C703       Br712   1.927       .  S
C713        C714   1.402       .  A
C713        C718   1.392       .  A
C714       Br726   1.917       .  S
C715        C716   1.413       .  A
C715       Br730   1.929   1_554  S
C716        C719   1.517       .  S
C717        C718   1.409       .  A
C717       Br725   1.932       .  S
C718      Br2553   1.881   1_455  S
C719        C720   1.422   1_554  A
C720        C721   1.415   1_556  A
C720       Br731   1.928       .  S
C721        C722   1.414       .  A
C721       Br727   1.932   1_554  S
C722        C723   1.414       .  A
C724       Br728   1.923       .  S
Br729      C2542   1.900       .  S
C733        C734   1.405       .  A
C733        C738   1.414       .  A
C734        C735   1.389       .  A
C734       Br746   1.903       .  S
C735        C736   1.403       .  A
C735       Br750   1.948       .  S
C736        C737   1.407       .  A
C736        C739   1.454       .  S
C737        C738   1.401       .  A
C737       Br745   1.935       .  S
C738       Br749   1.932       .  S
C739        C740   1.413       .  A
C739        C744   1.409       .  A
C740        C741   1.389       .  A
C740       Br751   1.936       .  S
C741        C742   1.404       .  A
C741       Br747   1.934       .  S
C742        C743   1.401       .  A
C743        C744   1.395       .  A
C743       Br752   1.928       .  S
C744       Br748   1.931       .  S
C753        C754   1.421       .  A
C753        C758   1.431       .  A
C754        C755   1.455       .  A
C754       Br766   1.891       .  S
C755        C756   1.431       .  A
C755       Br770   1.903       .  S
C756        C757   1.409       .  A
C756        C759   1.576       .  S
C757        C758   1.422       .  A
C757       Br765   1.912       .  S
C758       Br769   1.904       .  S
C759        C760   1.430       .  A
C759        C764   1.435       .  A
C760        C761   1.442       .  A
C760       Br771   1.930       .  S
C761        C762   1.422       .  A
C761       Br767   1.925       .  S
C762        C763   1.417       .  A
C763        C764   1.439       .  A
C763       Br772   1.927       .  S
C764       Br768   1.932       .  S
C773        C774   1.413       .  A
C773        C778   1.408       .  A
C774        C775   1.417       .  A
C774       Br786   1.931       .  S
C775        C776   1.422       .  A
C775       Br790   1.929       .  S
C776        C777   1.415       .  A
C776        C779   1.510       .  S
C777        C778   1.403       .  A
C777       Br785   1.930       .  S
C778       Br789   1.930       .  S
C779        C780   1.408       .  A
C779        C784   1.412       .  A
C780        C781   1.410       .  A
C780       Br791   1.939       .  S
C781        C782   1.422       .  A
C781       Br787   1.900       .  S
C782        C783   1.420       .  A
C783        C784   1.426       .  A
C783       Br792   1.915       .  S
C784       Br788   1.927       .  S
C793        C794   1.411       .  A
C793        C798   1.404       .  A
C794        C795   1.418       .  A
C794       Br806   1.928       .  S
C795        C796   1.425       .  A
C795       Br810   1.936       .  S
C796        C797   1.422       .  A
C796        C799   1.525       .  S
C797        C798   1.415       .  A
C797       Br805   1.923       .  S
C798       Br809   1.929       .  S
C799        C800   1.417       .  A
C799        C804   1.411       .  A
C800        C801   1.426       .  A
C800       Br811   1.935       .  S
C801        C802   1.427       .  A
C801       Br807   1.928   1_545  S
C802        C803   1.428       .  A
C803        C804   1.419       .  A
C803       Br812   1.911       .  S
C804       Br808   1.934       .  S
C813        C814   1.414       .  A
C813        C818   1.397       .  A
C814        C815   1.415       .  A
C814       Br826   1.927       .  S
C815        C816   1.417       .  A
C815       Br830   1.908       .  S
C816        C817   1.388       .  A
C816        C819   1.485       .  S
C817        C818   1.375       .  A
C817       Br825   1.881       .  S
C818       Br829   1.921       .  S
C819        C820   1.400       .  A
C819        C824   1.403       .  A
C820        C821   1.413       .  A
C820       Br831   1.926       .  S
C821        C822   1.429       .  A
C821       Br827   1.919       .  S
C822        C823   1.441       .  A
C823        C824   1.410       .  A
C823       Br832   1.934       .  S
C824       Br828   1.953       .  S
C833        C834   1.412       .  A
C833        C838   1.407       .  A
C834        C835   1.420       .  A
C834       Br846   1.924       .  S
C835        C836   1.419       .  A
C835       Br850   1.935       .  S
C836        C837   1.425       .  A
C836        C839   1.517       .  S
C837        C838   1.409       .  A
C837       Br845   1.933       .  S
C838       Br849   1.934       .  S
C839        C840   1.403       .  A
C839        C844   1.419       .  A
C840        C841   1.401       .  A
C840       Br851   1.922       .  S
C841        C842   1.406       .  A
C841      Br1759   1.868       .  S
C842        C843   1.430       .  A
C843        C844   1.427       .  A
C843       Br852   1.916       .  S
C844       Br848   1.938       .  S
Br847      C1753   1.928       .  S
C853        C854   1.427       .  A
C853        C858   1.415       .  A
C854        C855   1.424       .  A
C854       Br866   1.930       .  S
C855        C856   1.418       .  A
C855       Br870   1.938       .  S
C856        C857   1.414       .  A
C856        C859   1.520       .  S
C857        C858   1.413       .  A
C857       Br865   1.927       .  S
C858      Br1781   1.922       .  S
C859        C864   1.425       .  A
C860        C861   1.399       .  A
C860       Br871   1.919       .  S
C861       Br867   1.931       .  S
C862        C863   1.408       .  A
C863        C864   1.412       .  A
C863       Br872   1.931       .  S
C864       Br868   1.936       .  S
Br869      C1770   1.925       .  S
C873        C878   1.411       .  A
C874       Br886   1.925       .  S
C875        C876   1.422       .  A
C875       Br890   1.927       .  S
C876        C877   1.418       .  A
C876        C879   1.538       .  S
C877        C878   1.423       .  A
C877       Br885   1.923       .  S
C878       Br889   1.926       .  S
C879        C880   1.405       .  A
C879        C884   1.389       .  A
C880        C881   1.440       .  A
C880       Br891   1.921       .  S
C881        C882   1.442       .  A
C881       Br887   1.905       .  S
C882        C883   1.447       .  A
C883        C884   1.429       .  A
C893        C894   1.435       .  A
C893        C898   1.426       .  A
C894        C895   1.402       .  A
C894       Br906   1.943       .  S
C895        C896   1.402       .  A
C895       Br910   1.937       .  S
C896        C897   1.408       .  A
C896        C899   1.505       .  S
C897        C898   1.426       .  A
C897       Br905   1.924       .  S
C898      Br1821   1.904   1_545  S
C899        C900   1.418       .  A
C900        C901   1.414       .  A
C900       Br911   1.926       .  S
C901        C902   1.412       .  A
C901       Br907   1.930       .  S
C903        C904   1.394       .  A
C903       Br912   1.935       .  S
C904       Br908   1.926       .  S
Br909      C1810   1.872       .  S
C913        C915   1.641       .  S
C913        C917   1.648       .  S
C913        C916   1.638       .  S
C913        C937   2.174   1_556  S
C914        C918   1.649       .  S
C914        C920   1.656       .  S
C914        C919   1.608       .  S
C914        C936   2.153       .  S
C915        C923   1.369       .  A
C915       C1374   1.563       .  A
C916        C927   1.366       .  A
C916       C1375   1.544       .  A
C917        C931   1.387       .  A
C917       C1376   1.549       .  A
C918       C1371   1.556       .  A
C918        C921   1.383       .  A
C919       C1372   1.537       .  A
C919        C925   1.350       .  A
C920       C1373   1.542       .  A
C920        C928   1.395       .  A
C921        N922   1.360       .  A
C921        H934   1.080       .  S
N922       C1379   1.357       .  A
N922       C1318   1.443       .  S
C923       N1378   1.353       .  A
C923        H924   1.079       .  S
C925       N1382   1.346       .  A
C925        H935   1.073       .  S
N926       C1381   1.345       .  A
N926        C927   1.358       .  A
N926       C1814   1.427       .  S
C927        H933   1.072       .  S
C928       N1385   1.368       .  A
C928        H930   1.082       .  S
N929       C1384   1.371       .  A
N929        C931   1.363       .  A
N929       C1785   1.462       .  S
C931        H932   1.082       .  S
C936        C938   1.642       .  S
C936        C940   1.607       .  S
C936        C939   1.657       .  S
C937        C941   1.645       .  S
C937        C943   1.653       .  S
C937        C942   1.660       .  S
C938        C946   1.376       .  A
C938        C941   1.548       .  A
C939        C950   1.398       .  A
C939        C942   1.548       .  A
C940        C954   1.348       .  A
C940        C943   1.531       .  A
C941        C944   1.380       .  A
C942        C948   1.387       .  A
C943        C951   1.386       .  A
C944        N945   1.361       .  A
C944        H957   1.081       .  S
N945        C946   1.360       .  A
N945       C1249   1.443       .  S
C946        H947   1.080       .  S
C948        N949   1.366       .  A
C948        H958   1.073       .  S
N949        C950   1.366       .  A
N949       C1289   1.473       .  S
C950        H956   1.074       .  S
C951        N952   1.378       .  A
C951        H953   1.076       .  S
N952        C954   1.357       .  A
N952       C1269   1.461       .  S
C954        H955   1.068       .  S
O959       Zr971   2.483   1_565  S
O959        C961   1.287       .  A
O960       Zr997   2.437       .  S
O960        C961   1.279       .  A
C961       C1238   1.504       .  S
O962       Zr974   2.346       .  S
O962        C964   1.268       .  A
O963       Zr998   2.463       .  S
O963       C2788   1.295       .  A
C964       O2787   1.292       .  A
C964       C1189   1.416       .  S
O965       Zr974   2.383       .  S
O965        C967   1.275       .  A
O966       Zr997   2.597   1_545  S
C967       C1349   1.499       .  S
O968       Zr971   2.497       .  S
O968       C1882   1.268       .  A
O969       Zr998   2.508       .  S
O969        C970   1.259       .  A
C970       O1880   1.266       .  A
Zr971      O2797   2.515   1_545  S
Zr971      O2825   2.574   1_455  S
Zr971      O2827   2.358   1_545  S
O972       H1015   0.990       .  S
O973      Zr2795   2.528   1_565  S
O973       H1014   0.985       .  S
O973       H1018   0.984       .  S
Zr974       O975   2.442       .  S
Zr974       O976   2.427       .  S
Zr974       O978   2.257       .  S
Zr974       O977   2.398       .  S
Zr974      O1002   2.348       .  S
Zr974      O1004   2.432       .  S
O975       H1016   0.991       .  S
O975       H1019   0.988       .  S
O976       H1009   0.990       .  S
O978      Zr2822   2.366       .  S
O978       H1005   0.908       .  S
O979       Zr991   2.446       .  S
O979        C981   1.277       .  A
O980        C981   1.336   1_545  A
C981       C1209   1.578       .  S
O982       Zr994   2.412       .  S
O983       Zr997   2.363   1_655  S
O983       C3264   1.271       .  A
C984       O3263   1.269       .  A
O985       Zr994   2.537       .  S
O985        C987   1.301       .  A
O986       Zr998   2.399       .  S
O986        C987   1.274       .  A
C987       C1309   1.510       .  S
O988       Zr991   2.510       .  S
O988        C990   1.279       .  A
O989      Zr2821   2.743       .  S
O989        C990   1.350       .  A
C990       C1338   1.632       .  S
Zr991       O992   2.516       .  S
Zr991       O993   2.419       .  S
Zr991       O999   2.442   1_565  S
Zr991      O1000   2.306   1_565  S
Zr991      O1003   2.418       .  S
Zr991      O1001   2.377   1_565  S
O992       H1012   0.985       .  S
O992       H1017   0.988       .  S
O993       H1013   0.982       .  S
Zr994      O2820   2.432       .  S
Zr994      O2828   2.282       .  S
Zr994      O2826   2.412       .  S
O995       H1011   0.988       .  S
O996      Zr2818   2.425   1_455  S
O996       H1010   0.983       .  S
O996       H3300   0.981       .  S
Zr997      O2813   2.676   1_455  S
Zr997      O2824   2.305   1_465  S
Zr997      O2827   2.295       .  S
Zr998      O2802   2.367       .  S
Zr998      O2828   2.350       .  S
O999       H1007   0.955       .  S
O1000     Zr2821   2.298   1_545  S
O1001     Zr2795   2.586       .  S
O1002     Zr2818   2.407   1_455  S
O1002      H1006   0.950       .  S
O1003     Zr2795   2.348   1_565  S
O1003     Zr2821   2.293       .  S
O1003      H1008   0.954       .  S
O1004     Zr2818   2.284   1_455  S
O1004     Zr2822   2.349       .  S
H1020      O3276   0.983       .  S
O1021     Zr1033   2.488       .  S
O1021      C1023   1.285   1_655  A
O1022     Zr1059   2.403       .  S
O1022      C1023   1.269       .  A
C1023      C1169   1.489       .  S
O1024     Zr1036   2.511       .  S
O1024      C1026   1.295   1_455  A
O1025     Zr1060   2.710       .  S
O1025      C2850   1.327       .  A
C1026      O2849   1.323       .  A
C1026      C1129   1.620   1_655  S
O1027     Zr1036   2.537       .  S
O1027      C1029   1.280       .  A
O1028      C1029   1.299       .  A
C1029      C1298   1.578       .  S
O1030     Zr1489   2.600       .  S
O1030      C1944   1.283       .  A
O1031     Zr1516   2.478       .  S
O1031      C1032   1.246       .  A
C1032      O1942   1.276       .  A
Zr1033     O1486   2.568   1_554  S
Zr1033     O3315   2.525   1_554  S
Zr1033     O2889   2.248       .  S
Zr1033     O2887   2.305       .  S
O1034      H1077   0.990       .  S
O1035     Zr3313   2.543       .  S
O1035      H1076   0.983       .  S
O1035      H1080   0.989       .  S
Zr1036     O1037   2.362   1_554  S
Zr1036     O1038   2.452       .  S
Zr1036     O1040   2.264   1_455  S
Zr1036     O1064   2.308   1_455  S
Zr1036     O1039   2.310       .  S
Zr1036     O1066   2.300   1_455  S
O1037      H1078   0.975       .  S
O1037      H1081   0.987   1_556  S
O1038      H1071   0.982       .  S
O1040     Zr2884   2.456       .  S
O1040      H1067   0.913   1_554  S
O1041     Zr1053   2.360       .  S
O1041      C1043   1.266       .  A
O1042      C1043   1.294       .  A
C1043      C1149   1.417       .  S
O1044     Zr1056   2.350       .  S
O1045     Zr1059   2.370   1_545  S
O1045      C2870   1.268       .  A
C1046      O2869   1.270       .  A
O1047     Zr1056   2.590       .  S
O1047      C1049   1.309       .  A
O1048     Zr1060   2.389       .  S
O1048      C1049   1.273       .  A
C1049      C1258   1.534       .  S
O1050     Zr1053   2.494       .  S
O1050      C1052   1.295       .  A
O1051     Zr2883   2.535       .  S
O1051      C1052   1.304       .  A
C1052      C1278   1.534       .  S
Zr1053     O1054   2.466       .  S
Zr1053     O1055   2.434       .  S
Zr1053     O1061   2.484       .  S
Zr1053     O1062   2.393       .  S
Zr1053     O1065   2.392       .  S
Zr1053     O1063   2.237       .  S
O1054      H1074   0.990       .  S
O1054      H1079   0.989       .  S
O1055      H1075   0.990       .  S
Zr1056     O2882   2.479       .  S
Zr1056     O2890   2.258       .  S
Zr1056     O2888   2.357       .  S
O1057      H1073   0.989       .  S
O1058     Zr2880   2.470       .  S
O1058      H1072   0.978       .  S
O1058      H2906   0.978       .  S
Zr1059     O2875   2.556   1_455  S
Zr1059     O2886   2.488   1_455  S
Zr1059     O2889   2.342   1_455  S
Zr1060     O1487   2.463   1_554  S
Zr1060     O2864   2.435       .  S
Zr1060     O2890   2.287       .  S
O1061      H1069   0.965       .  S
O1062     Zr2883   2.490       .  S
O1063     Zr2857   2.311       .  S
O1064     Zr2880   2.363       .  S
O1064      H1068   0.951       .  S
O1065     Zr2857   2.256       .  S
O1065     Zr2883   2.337       .  S
O1065      H1070   0.946       .  S
O1066     Zr2880   2.189       .  S
O1066     Zr2884   2.208       .  S
H1082      O2882   0.979       .  S
C1083      C1085   1.630       .  S
C1083      C1087   1.683       .  S
C1083      C1086   1.592       .  S
C1083      C1563   2.168       .  S
C1084      C1088   1.638       .  S
C1084      C1090   1.683       .  S
C1084      C1089   1.602       .  S
C1084      C1106   2.169       .  S
C1085      C1093   1.372       .  A
C1085      C1088   1.552       .  A
C1086      C1097   1.345       .  A
C1086      C1089   1.548       .  A
C1087      C1101   1.409       .  A
C1087      C1090   1.555       .  A
C1088      C1091   1.379       .  A
C1089      C1095   1.352       .  A
C1090      C1098   1.404       .  A
C1091      N1092   1.349       .  A
C1091      H1104   1.070       .  S
N1092      C1093   1.346       .  A
N1092      C1229   1.439       .  S
C1093      H1094   1.069       .  S
C1095      N1096   1.341       .  A
C1095      H1105   1.078       .  S
N1096      C1097   1.340       .  A
N1096      C1198   1.388       .  S
C1097      H1103   1.082       .  S
C1098      N1099   1.370       .  A
C1098      H1100   1.076       .  S
N1099      C1101   1.376       .  A
N1099      C1218   1.489       .  S
C1101      H1102   1.081       .  S
C1106      C1108   1.631       .  S
C1106      C1110   1.597       .  S
C1106      C1109   1.688       .  S
C1107      C1111   1.647       .  S
C1107      C1113   1.622       .  S
C1107      C1112   1.680       .  S
C1107      C1539   2.172       .  S
C1108      C1116   1.369       .  A
C1108      C1111   1.547       .  A
C1109      C1120   1.414       .  A
C1109      C1112   1.552       .  A
C1110      C1124   1.350       .  A
C1110      C1113   1.551       .  A
C1111      C1114   1.391       .  A
C1112      C1118   1.406       .  A
C1113      C1121   1.369       .  A
C1114      N1115   1.360       .  A
C1114      H1127   1.075       .  S
N1115      C1116   1.350       .  A
N1115      C1178   1.452       .  S
C1116      H1117   1.068       .  S
C1118      N1119   1.373       .  A
C1118      H1128   1.074       .  S
N1119      C1120   1.376       .  A
N1119      C1138   1.494       .  S
C1120      H1126   1.079       .  S
C1121      N1122   1.348       .  A
C1121      H1123   1.079       .  S
N1122      C1124   1.335       .  A
N1122      C1158   1.403       .  S
C1124      H1125   1.080       .  S
C1129      C1130   1.423       .  A
C1129      C1590   1.429   1_455  A
C1130      C1131   1.434       .  A
C1130     Br1142   1.865       .  S
C1131      C1588   1.419       .  A
C1131     Br1146   1.920       .  S
C1132      C1587   1.409       .  A
C1132      C1133   1.431       .  A
C1132      C1135   1.577       .  S
C1133      C1134   1.454       .  A
C1133     Br1141   1.917       .  S
C1134      C1585   1.429       .  A
C1134     Br2969   1.899   1_455  S
C1135      C1136   1.430       .  A
C1135      C1140   1.436       .  A
C1136      C1137   1.441       .  A
C1136     Br1603   1.930       .  S
C1137      C1138   1.421       .  A
C1137     Br1599   1.924       .  S
C1138      C1139   1.419       .  A
C1139      C1140   1.440       .  A
C1139     Br1148   1.923       .  S
C1140     Br1144   1.937       .  S
Br1143     C1593   1.926       .  S
Br1145     C2958   1.901       .  S
Br1147     C1592   1.929       .  S
C1149      C1606   1.404       .  A
C1149      C1154   1.388       .  A
C1150      C1605   1.416       .  A
C1150      C1151   1.400       .  A
C1150     Br1162   1.927       .  S
C1151      C1152   1.403       .  A
C1151     Br1166   1.935       .  S
C1152      C1609   1.411       .  A
C1152      C1155   1.455       .  S
C1153      C1608   1.410       .  A
C1153      C1154   1.379       .  A
C1153     Br1161   1.940       .  S
C1154     Br1165   1.920       .  S
C1155      C1156   1.416       .  A
C1155      C1160   1.410       .  A
C1156      C1157   1.386       .  A
C1156     Br1167   1.937       .  S
C1157      C1158   1.396       .  A
C1157     Br1163   1.933       .  S
C1158      C1159   1.400       .  A
C1159      C1160   1.395       .  A
C1159     Br1168   1.928       .  S
C1160     Br1620   1.929       .  S
Br1164     C1616   1.933       .  S
C1169      C1170   1.402       .  A
C1169      C1174   1.394       .  A
C1170      C1627   1.414       .  A
C1170     Br1182   1.926       .  S
C1171      C1626   1.408       .  A
C1171      C1172   1.408       .  A
C1171     Br1186   1.922       .  S
C1172      C1629   1.419       .  A
C1172      C1175   1.535       .  S
C1173      C1628   1.415       .  A
C1173      C1174   1.409       .  A
C1173     Br1181   1.929       .  S
C1174     Br3009   1.891   1_455  S
C1175      C1176   1.431       .  A
C1175      C1636   1.427       .  A
C1176      C1177   1.416       .  A
C1176     Br1187   1.922       .  S
C1177      C1178   1.411       .  A
C1177     Br1183   1.936       .  S
C1178      C1179   1.407       .  A
C1179      C1636   1.408       .  A
C1179     Br1644   1.931       .  S
C1180      C1631   1.413       .  A
C1180      C1635   1.412       .  A
C1180     Br1184   1.905       .  S
Br1185     C2998   1.892       .  S
Br1188     C1635   1.926       .  S
C1189      C1190   1.393       .  A
C1189      C1194   1.408       .  A
C1190      C1191   1.371       .  A
C1190     Br1202   1.903       .  S
C1191      C1192   1.401       .  A
C1191     Br1206   1.944       .  S
C1192      C1193   1.396       .  A
C1192      C1195   1.414       .  S
C1193      C1194   1.388       .  A
C1193     Br1201   1.934       .  S
C1194     Br1205   1.929       .  S
C1195      C1196   1.402       .  A
C1195      C1200   1.404       .  A
C1196      C1197   1.371       .  A
C1196     Br1207   1.933       .  S
C1197      C1198   1.402       .  A
C1197     Br1203   1.938       .  S
C1198      C1199   1.397       .  A
C1199      C1200   1.384       .  A
C1199     Br1208   1.928       .  S
C1200     Br1204   1.932       .  S
C1209      C1210   1.412       .  A
C1209      C1214   1.423       .  A
C1210      C1211   1.450       .  A
C1210     Br1222   1.897   1_565  S
C1211      C1212   1.434       .  A
C1211     Br1226   1.904       .  S
C1212      C1213   1.417       .  A
C1212      C1215   1.573       .  S
C1213      C1214   1.417       .  A
C1213     Br1221   1.922       .  S
C1214     Br1225   1.909       .  S
C1215      C1216   1.432       .  A
C1215      C1220   1.435       .  A
C1216      C1217   1.438       .  A
C1216     Br1227   1.931       .  S
C1217      C1218   1.418       .  A
C1217     Br1223   1.926       .  S
C1218      C1219   1.418       .  A
C1219      C1220   1.440       .  A
C1219     Br1228   1.928       .  S
C1220     Br1224   1.932       .  S
C1229      C1230   1.409       .  A
C1229      C1234   1.410       .  A
C1230      C1231   1.408       .  A
C1230     Br1242   1.932       .  S
C1231      C1232   1.417       .  A
C1231     Br1246   1.923       .  S
C1232      C1233   1.412       .  A
C1232      C1235   1.503       .  S
C1233      C1234   1.402       .  A
C1233     Br1241   1.914       .  S
C1234     Br1245   1.934       .  S
C1235      C1236   1.411       .  A
C1235      C1240   1.406       .  A
C1236      C1237   1.405       .  A
C1236     Br1247   1.908       .  S
C1237      C1238   1.413       .  A
C1237     Br1243   1.923       .  S
C1238      C1239   1.414       .  A
C1239      C1240   1.409       .  A
C1239     Br1248   1.901   1_565  S
C1240     Br1244   1.927       .  S
C1249      C1250   1.408       .  A
C1249      C1254   1.406       .  A
C1250      C1251   1.410       .  A
C1250     Br1262   1.929       .  S
C1251      C1252   1.420       .  A
C1251     Br1266   1.931       .  S
C1252      C1253   1.418       .  A
C1252      C1255   1.510       .  S
C1253      C1254   1.410       .  A
C1253     Br1261   1.919       .  S
C1254     Br1265   1.931       .  S
C1255      C1256   1.411       .  A
C1255      C1260   1.407       .  A
C1256      C1257   1.420       .  A
C1256     Br1267   1.935       .  S
C1257      C1258   1.429       .  A
C1257     Br1263   1.927       .  S
C1258      C1259   1.429       .  A
C1259      C1260   1.416       .  A
C1259     Br1268   1.913       .  S
C1260     Br1264   1.936       .  S
C1269      C1270   1.410       .  A
C1269      C1274   1.419       .  A
C1270      C1271   1.410       .  A
C1270     Br1282   1.933       .  S
C1271      C1272   1.418       .  A
C1271     Br1286   1.909       .  S
C1272      C1273   1.400       .  A
C1272      C1275   1.498       .  S
C1273      C1274   1.396       .  A
C1273     Br1281   1.900       .  S
C1274     Br1285   1.935       .  S
C1275      C1276   1.408       .  A
C1275      C1280   1.401       .  A
C1276      C1277   1.415       .  A
C1276     Br1287   1.932       .  S
C1277      C1278   1.429       .  A
C1277     Br1283   1.923       .  S
C1278      C1279   1.441       .  A
C1279      C1280   1.418       .  A
C1279     Br1288   1.934       .  S
C1280     Br1284   1.948       .  S
C1289      C1290   1.420       .  A
C1289      C1294   1.410       .  A
C1290      C1291   1.432       .  A
C1290     Br1302   1.923       .  S
C1291      C1292   1.419       .  A
C1291     Br1306   1.919       .  S
C1292      C1293   1.423       .  A
C1292      C1295   1.555       .  S
C1293      C1294   1.419       .  A
C1293     Br1301   1.898       .  S
C1294     Br1305   1.933       .  S
C1295      C1296   1.423       .  A
C1295      C1300   1.420       .  A
C1296      C1297   1.442       .  A
C1296     Br1307   1.936       .  S
C1297      C1298   1.434       .  A
C1298      C1299   1.438       .  A
C1299      C1300   1.428       .  A
C1299     Br1308   1.924       .  S
C1300     Br1304   1.942       .  S
C1309      C1310   1.422       .  A
C1309      C1314   1.416       .  A
C1310      C1311   1.414       .  A
C1310     Br1322   1.929       .  S
C1311      C1312   1.414       .  A
C1311     Br1326   1.936       .  S
C1312      C1313   1.419       .  A
C1312      C1315   1.513       .  S
C1313      C1314   1.415       .  A
C1313     Br1321   1.934       .  S
C1315      C1772   1.423       .  A
C1315      C1320   1.420       .  A
C1316      C1771   1.420       .  A
C1316      C1317   1.396       .  A
C1316     Br1327   1.915       .  S
C1317      C1774   1.391       .  A
C1317     Br1323   1.932       .  S
C1318      C1773   1.401       .  A
C1318      C1319   1.408       .  A
C1319      C1320   1.411       .  A
C1319     Br1328   1.927       .  S
C1320     Br1324   1.930       .  S
C1329      C1786   1.413       .  A
C1329      C1334   1.411       .  A
C1329      N1385   1.463       .  S
C1330      C1785   1.420       .  A
C1330      C1787   1.426       .  A
C1330     Br1342   1.924       .  S
C1331      C1786   1.428       .  A
C1331      C1332   1.423       .  A
C1331     Br1346   1.926       .  S
C1332      C1333   1.415       .  A
C1332      C1335   1.541       .  S
C1333      C1334   1.421       .  A
C1333     Br1341   1.915       .  S
C1334     Br1345   1.928       .  S
C1335      C1336   1.402       .  A
C1335      C1340   1.390       .  A
C1336      C1337   1.441       .  A
C1336     Br1347   1.915       .  S
C1337      C1338   1.442       .  A
C1337     Br1343   1.908       .  S
C1338      C1339   1.461       .  A
C1339      C1340   1.434       .  A
C1339     Br1804   1.873       .  S
C1340     Br1800   1.938       .  S
Br1344     C1796   1.912       .  S
Br1348     C1795   1.875   1_554  S
C1349      C1350   1.426       .  A
C1349      C1354   1.410       .  A
C1350      C1351   1.389       .  A
C1350     Br1362   1.932       .  S
C1351      C1352   1.404       .  A
C1351     Br1366   1.948       .  S
C1352      C1353   1.419       .  A
C1352      C1355   1.479       .  S
C1353      C1354   1.409       .  A
C1353     Br1361   1.941       .  S
C1355      C1356   1.414       .  A
C1355      C1816   1.415       .  A
C1356      C1357   1.400       .  A
C1356     Br1367   1.930       .  S
C1357      C1358   1.403       .  A
C1357     Br1363   1.924       .  S
C1358      C1815   1.405       .  A
C1358      N1382   1.423       .  S
C1359      C1814   1.408       .  A
C1359      C1360   1.384       .  A
C1359     Br1368   1.936       .  S
C1360      C1811   1.407       .  A
C1360     Br1364   1.909       .  S
C1369      C1371   1.641       .  S
C1369      C1373   1.642       .  S
C1369      C1372   1.629       .  S
C1369      C1393   2.151       .  S
C1370      C1374   1.626       .  S
C1370      C1376   1.664       .  S
C1370      C1375   1.609       .  S
C1370      C1392   2.162       .  S
C1371      C1379   1.377       .  A
C1372      C1383   1.365       .  A
C1373      C1387   1.384       .  A
C1374      C1377   1.367       .  A
C1375      C1381   1.347       .  A
C1376      C1384   1.393       .  A
C1377      N1378   1.348       .  A
C1377      H1390   1.080       .  S
N1378      C1774   1.423       .  S
C1379      H1380   1.079       .  S
C1381      H1391   1.070       .  S
N1382      C1383   1.358       .  A
C1383      H1389   1.072       .  S
C1384      H1386   1.083       .  S
N1385      C1387   1.363       .  A
C1387      H1388   1.076       .  S
C1392      C1394   1.652       .  S
C1392      C1396   1.613       .  S
C1392      C1395   1.656       .  S
C1393      C1397   1.632       .  S
C1393      C1399   1.627       .  S
C1393      C1398   1.645       .  S
C1394      C1402   1.379       .  A
C1394      C1397   1.551       .  A
C1395      C1406   1.391       .  A
C1395      C1398   1.549       .  A
C1396      C1410   1.357       .  A
C1396      C1399   1.540       .  A
C1397      C1400   1.370       .  A
C1398      C1404   1.383       .  A
C1399      C1407   1.368       .  A
C1400      N1401   1.355       .  A
C1400      H1413   1.081       .  S
N1401      C1402   1.363       .  A
N1401      C1705   1.439       .  S
C1402      H1403   1.077       .  S
C1404      N1405   1.359       .  A
C1404      H1414   1.074       .  S
N1405      C1406   1.362       .  A
N1405      C1745   1.461       .  S
C1406      H1412   1.073       .  S
C1407      N1408   1.359       .  A
C1407      H1409   1.082       .  S
N1408      C1410   1.353       .  A
N1408      C1725   1.421       .  S
C1410      H1411   1.083       .  S
O1415     Zr1427   2.509       .  S
O1415      C1417   1.283       .  A
O1416     Zr1453   2.437       .  S
O1416      C1417   1.273       .  A
C1417      C1694   1.519       .  S
O1418     Zr1430   2.341       .  S
O1418      C1420   1.268       .  A
O1419     Zr1454   2.443       .  S
O1419      C3244   1.293       .  A
C1420      O3243   1.290       .  A
C1420      C1645   1.407       .  S
O1421     Zr1430   2.332       .  S
O1421      C1423   1.260       .  A
O1422     Zr1453   2.621   1_545  S
C1423      C1805   1.513       .  S
O1424     Zr1427   2.457   1_545  S
O1424      C2338   1.269       .  A
O1425     Zr1454   2.501       .  S
O1425      C1426   1.257       .  A
C1426      O2336   1.265       .  A
Zr1427     O3253   2.466       .  S
Zr1427     O3281   2.433   1_455  S
Zr1427     O3283   2.305   1_455  S
O1428      H1471   0.988       .  S
O1429     Zr3251   2.497   1_565  S
O1429      H1470   0.981       .  S
O1429      H1474   0.990       .  S
Zr1430     O1431   2.425       .  S
Zr1430     O1432   2.438       .  S
Zr1430     O1434   2.261       .  S
Zr1430     O1433   2.421       .  S
Zr1430     O1458   2.351       .  S
Zr1430     O1460   2.417       .  S
O1431      H1472   0.987       .  S
O1431      H1475   0.988       .  S
O1432      H1465   0.990       .  S
O1434     Zr3278   2.368       .  S
O1434      H1461   0.905       .  S
O1435     Zr1447   2.460       .  S
O1435      C1437   1.281       .  A
O1436      C1437   1.347   1_545  A
C1437      C1665   1.593       .  S
O1438     Zr1450   2.366       .  S
O1439     Zr1453   2.367   1_655  S
O1439      C2808   1.274       .  A
C1440      O2807   1.277       .  A
O1441     Zr1450   2.529       .  S
O1441      C1443   1.298       .  A
O1442     Zr1454   2.400       .  S
O1442      C1443   1.274       .  A
C1443      C1765   1.508       .  S
O1444     Zr1447   2.478       .  S
O1444      C1446   1.276       .  A
O1445     Zr3277   2.662       .  S
O1445      C1446   1.327       .  A
C1446      C1794   1.585       .  S
Zr1447     O1448   2.503       .  S
Zr1447     O1449   2.401       .  S
Zr1447     O1455   2.414   1_565  S
Zr1447     O1459   2.426       .  S
Zr1447     O1457   2.362   1_565  S
Zr1447     O1456   2.220   1_565  S
O1448      H1468   0.985       .  S
O1448      H1473   0.976       .  S
O1449      H1469   0.985       .  S
Zr1450     O3276   2.450       .  S
Zr1450     O3284   2.265       .  S
Zr1450     O3282   2.382       .  S
O1451      H1467   0.987       .  S
O1452     Zr3274   2.452   1_455  S
O1452      H1466   0.987       .  S
O1452      H2844   0.982       .  S
Zr1453     O3269   2.676   1_455  S
Zr1453     O3283   2.377   1_455  S
Zr1453     O3280   2.263   1_455  S
Zr1454     O3258   2.374       .  S
Zr1454     O3284   2.357       .  S
O1455      H1463   0.953       .  S
O1456     Zr3277   2.238   1_545  S
O1457     Zr3251   2.595       .  S
O1458     Zr3274   2.400   1_455  S
O1458      H1462   0.945       .  S
O1459     Zr3251   2.357   1_565  S
O1459     Zr3277   2.300       .  S
O1459      H1464   0.959       .  S
O1460     Zr3274   2.261   1_455  S
O1460     Zr3278   2.353       .  S
H1476      O2820   0.980       .  S
O1477     Zr1489   2.493       .  S
O1477      C1479   1.280   1_655  A
O1478     Zr1515   2.563       .  S
O1478      C1479   1.294       .  A
C1479      C1625   1.547       .  S
O1480     Zr1492   2.471       .  S
O1480      C1482   1.290       .  A
O1481     Zr1516   2.710       .  S
O1481      C3306   1.332       .  A
C1482      O3305   1.334   1_455  A
C1482      C1585   1.610       .  S
O1483     Zr1492   2.459       .  S
O1483      C1485   1.274       .  A
O1484      C1485   1.294       .  A
C1485      C1754   1.538       .  S
O1486      C2400   1.282       .  A
O1487      C1488   1.248       .  A
C1488      O2398   1.267       .  A
Zr1489     O2859   2.534       .  S
Zr1489     O3343   2.400       .  S
Zr1489     O3345   2.261       .  S
O1490      H1533   0.984       .  S
O1491     Zr2857   2.523   1_556  S
O1491      H1532   0.983       .  S
O1491      H1536   0.989       .  S
Zr1492     O1493   2.479       .  S
Zr1492     O1494   2.423       .  S
Zr1492     O1496   2.310   1_455  S
Zr1492     O1495   2.397       .  S
Zr1492     O1520   2.303   1_455  S
Zr1492     O1522   2.328   1_455  S
O1493      H1534   0.987       .  S
O1493      H1537   0.989       .  S
O1494      H1527   0.982       .  S
O1496     Zr3340   2.458       .  S
O1496      H1523   0.905       .  S
O1497     Zr1509   2.399       .  S
O1497      C1499   1.272       .  A
O1498      C1499   1.293       .  A
C1499      C1605   1.453       .  S
O1500     Zr1512   2.319       .  S
O1501     Zr1515   2.765   1_545  S
O1501      C3326   1.318       .  A
C1502      O3325   1.271       .  A
O1503     Zr1512   2.572       .  S
O1503      C1505   1.304       .  A
O1504     Zr1516   2.420       .  S
O1504      C1505   1.274       .  A
C1505      C1714   1.538       .  S
O1506     Zr1509   2.509       .  S
O1506      C1508   1.297       .  A
O1507     Zr3339   2.503       .  S
O1507      C1508   1.295       .  A
C1508      C1734   1.519       .  S
Zr1509     O1510   2.456       .  S
Zr1509     O1511   2.445       .  S
Zr1509     O1517   2.481       .  S
Zr1509     O1521   2.376       .  S
Zr1509     O1519   2.335       .  S
Zr1509     O1518   2.325       .  S
O1510      H1530   0.990       .  S
O1510      H1535   0.989       .  S
O1511      H1531   0.990       .  S
Zr1512     O3338   2.454       .  S
Zr1512     O3344   2.358       .  S
Zr1512     O3346   2.196       .  S
O1513      H1529   0.986       .  S
O1514     Zr3336   2.451       .  S
O1514      H1528   0.979       .  S
O1514      H3362   0.983   1_655  S
Zr1515     O3331   2.590   1_455  S
Zr1515     O3342   2.481   1_455  S
Zr1515     O3345   2.384   1_455  S
Zr1516     O3320   2.445       .  S
Zr1516     O3346   2.211       .  S
O1517      H1525   0.967       .  S
O1518     Zr3339   2.406       .  S
O1519     Zr3313   2.389       .  S
O1520     Zr3336   2.354       .  S
O1520      H1524   0.927       .  S
O1521     Zr3313   2.299       .  S
O1521     Zr3339   2.318       .  S
O1521      H1526   0.946       .  S
O1522     Zr3336   2.197       .  S
O1522     Zr3340   2.206       .  S
H1538      O3338   0.985       .  S
C1539      C1541   1.623       .  S
C1539      C1543   1.691       .  S
C1539      C1542   1.594       .  S
C1540      C1544   1.628       .  S
C1540      C1546   1.676       .  S
C1540      C1545   1.615       .  S
C1540      C1562   2.162       .  S
C1541      C1549   1.373       .  A
C1541      C1544   1.539       .  A
C1542      C1553   1.347       .  A
C1542      C1545   1.556       .  A
C1543      C1557   1.412       .  A
C1543      C1546   1.557       .  A
C1544      C1547   1.365       .  A
C1545      C1551   1.360       .  A
C1546      C1554   1.404       .  A
C1547      N1548   1.347       .  A
C1547      H1560   1.065       .  S
N1548      C1549   1.353       .  A
N1548      C1685   1.431       .  S
C1549      H1550   1.074       .  S
C1551      N1552   1.347       .  A
C1551      H1561   1.083       .  S
N1552      C1553   1.337       .  A
N1552      C1654   1.388       .  S
C1553      H1559   1.083       .  S
C1554      N1555   1.371       .  A
C1554      H1556   1.079       .  S
N1555      C1557   1.376       .  A
N1555      C1674   1.489       .  S
C1557      H1558   1.078       .  S
C1562      C1564   1.632   1_556  S
C1562      C1566   1.596       .  S
C1562      C1565   1.696   1_556  S
C1563      C1567   1.637       .  S
C1563      C1569   1.607       .  S
C1563      C1568   1.687       .  S
C1564      C1572   1.372   1_554  A
C1564      C1567   1.535       .  A
C1565      C1576   1.422   1_554  A
C1565      C1568   1.555       .  A
C1566      C1580   1.347       .  A
C1566      C1569   1.551   1_556  A
C1567      C1570   1.379       .  A
C1568      C1574   1.413       .  A
C1569      C1577   1.351       .  A
C1570      N1571   1.353       .  A
C1570      H1583   1.068       .  S
N1571      C1572   1.352   1_554  A
N1571      C1634   1.441       .  S
C1572      H1573   1.069       .  S
C1574      N1575   1.377       .  A
C1574      H1584   1.075       .  S
N1575      C1576   1.382   1_554  A
N1575      C1594   1.508       .  S
C1576      H1582   1.081       .  S
C1577      N1578   1.343       .  A
C1577      H1579   1.081       .  S
N1578      C1580   1.342   1_554  A
N1578      C1614   1.389       .  S
C1580      H1581   1.082       .  S
C1585      C1586   1.434       .  A
C1586      C1587   1.431       .  A
C1586     Br1598   1.878       .  S
C1587     Br1602   1.926       .  S
C1588      C1589   1.440       .  A
C1588      C1591   1.605       .  S
C1589      C1590   1.462   1_455  A
C1589     Br1597   1.904   1_454  S
C1590     Br3425   1.898       .  S
C1591      C1592   1.441       .  A
C1591      C1596   1.443       .  A
C1592      C1593   1.451       .  A
C1593      C1594   1.422       .  A
C1594      C1595   1.422       .  A
C1595      C1596   1.451       .  A
C1595     Br1604   1.927   1_554  S
C1596     Br1600   1.935   1_554  S
Br1601     C3414   1.898       .  S
C1605      C1610   1.400       .  A
C1606      C1607   1.389   1_554  A
C1606     Br1618   1.925   1_554  S
C1607      C1608   1.407   1_556  A
C1607     Br1622   1.940       .  S
C1608      C1611   1.433       .  S
C1609      C1610   1.390       .  A
C1609     Br1617   1.941       .  S
C1610     Br1621   1.925       .  S
C1611      C1612   1.408   1_554  A
C1611      C1616   1.414       .  A
C1612      C1613   1.374   1_556  A
C1612     Br1623   1.936       .  S
C1613      C1614   1.399       .  A
C1613     Br1619   1.939   1_554  S
C1614      C1615   1.391       .  A
C1615      C1616   1.387       .  A
C1615     Br1624   1.930       .  S
C1625      C1626   1.409       .  A
C1625      C1630   1.431       .  A
C1626     Br1638   1.883       .  S
C1627      C1628   1.423       .  A
C1627     Br1642   1.923       .  S
C1628      C1631   1.514       .  S
C1629      C1630   1.436       .  A
C1629     Br1637   1.934   1_455  S
C1630     Br3465   1.916   1_455  S
C1631      C1632   1.415       .  A
C1632      C1633   1.401       .  A
C1632     Br1643   1.899   1_554  S
C1633      C1634   1.402       .  A
C1633     Br1639   1.930   1_554  S
C1634      C1635   1.407       .  A
C1636     Br1640   1.928       .  S
Br1641     C3454   1.910       .  S
C1645      C1646   1.394       .  A
C1645      C1650   1.410       .  A
C1646      C1647   1.379       .  A
C1646     Br1658   1.923       .  S
C1647      C1648   1.410       .  A
C1647     Br1662   1.943       .  S
C1648      C1649   1.393       .  A
C1648      C1651   1.415       .  S
C1649      C1650   1.377       .  A
C1649     Br1657   1.942       .  S
C1650     Br1661   1.923       .  S
C1651      C1652   1.403       .  A
C1651      C1656   1.407       .  A
C1652      C1653   1.369       .  A
C1652     Br1663   1.941       .  S
C1653      C1654   1.405       .  A
C1653     Br1659   1.941       .  S
C1654      C1655   1.395       .  A
C1655      C1656   1.384       .  A
C1655     Br1664   1.924       .  S
C1656     Br1660   1.935       .  S
C1665      C1666   1.416       .  A
C1665      C1670   1.432       .  A
C1666      C1667   1.449       .  A
C1666     Br1678   1.889   1_565  S
C1667      C1668   1.432       .  A
C1667     Br1682   1.915       .  S
C1668      C1669   1.413       .  A
C1668      C1671   1.575       .  S
C1669      C1670   1.425       .  A
C1669     Br1677   1.912       .  S
C1670     Br1681   1.916       .  S
C1671      C1672   1.431       .  A
C1671      C1676   1.436       .  A
C1672      C1673   1.438       .  A
C1672     Br1683   1.930       .  S
C1673      C1674   1.417       .  A
C1673     Br1679   1.923       .  S
C1674      C1675   1.417       .  A
C1675      C1676   1.440       .  A
C1675     Br1684   1.926       .  S
C1676     Br1680   1.934       .  S
C1685      C1686   1.402       .  A
C1685      C1690   1.389       .  A
C1686      C1687   1.413       .  A
C1686     Br1698   1.928       .  S
C1687      C1688   1.424       .  A
C1687     Br1702   1.910       .  S
C1688      C1689   1.422       .  A
C1688      C1691   1.531       .  S
C1689      C1690   1.402       .  A
C1689     Br1697   1.874       .  S
C1690     Br1701   1.940       .  S
C1691      C1692   1.429       .  A
C1691      C1696   1.421       .  A
C1692      C1693   1.420       .  A
C1692     Br1703   1.922       .  S
C1693      C1694   1.407       .  A
C1693     Br1699   1.921   1_455  S
C1694      C1695   1.419       .  A
C1695      C1696   1.419       .  A
C1695     Br1704   1.916       .  S
C1696     Br1700   1.944       .  S
C1705      C1706   1.408       .  A
C1705      C1710   1.399       .  A
C1706      C1707   1.411       .  A
C1706     Br1718   1.930       .  S
C1707      C1708   1.426       .  A
C1707     Br1722   1.939       .  S
C1708      C1709   1.420       .  A
C1708      C1711   1.514       .  S
C1709      C1710   1.406       .  A
C1709     Br1717   1.911       .  S
C1710     Br1721   1.931       .  S
C1711      C1712   1.415       .  A
C1711      C1716   1.402       .  A
C1712      C1713   1.427       .  A
C1712     Br1723   1.937       .  S
C1713      C1714   1.430       .  A
C1713     Br1719   1.917       .  S
C1714      C1715   1.420       .  A
C1715      C1716   1.410       .  A
C1715     Br1724   1.897       .  S
C1716     Br1720   1.930       .  S
C1725      C1726   1.400       .  A
C1725      C1730   1.400       .  A
C1726      C1727   1.387       .  A
C1726     Br1738   1.937       .  S
C1727      C1728   1.420       .  A
C1727     Br1742   1.925       .  S
C1728      C1729   1.425       .  A
C1728      C1731   1.500       .  S
C1729      C1730   1.404       .  A
C1729     Br1737   1.921       .  S
C1730     Br1741   1.932       .  S
C1731      C1732   1.402       .  A
C1731      C1736   1.404       .  A
C1732      C1733   1.412       .  A
C1732     Br1743   1.907       .  S
C1733      C1734   1.431       .  A
C1733     Br1739   1.927       .  S
C1734      C1735   1.428       .  A
C1735      C1736   1.407       .  A
C1735     Br1744   1.920       .  S
C1736     Br1740   1.942       .  S
C1745      C1746   1.415       .  A
C1745      C1750   1.417       .  A
C1746      C1747   1.417       .  A
C1746     Br1758   1.925       .  S
C1747      C1748   1.415       .  A
C1747     Br1762   1.928       .  S
C1748      C1749   1.414       .  A
C1748      C1751   1.516       .  S
C1749      C1750   1.413       .  A
C1749     Br1757   1.920       .  S
C1750     Br1761   1.927       .  S
C1751      C1752   1.415       .  A
C1751      C1756   1.411       .  A
C1752      C1753   1.420       .  A
C1752     Br1763   1.931       .  S
C1753      C1754   1.428       .  A
C1754      C1755   1.435       .  A
C1755      C1756   1.411       .  A
C1755     Br1764   1.930       .  S
C1756     Br1760   1.945       .  S
C1765      C1766   1.426       .  A
C1765      C1770   1.419       .  A
C1766      C1767   1.411       .  A
C1766     Br1778   1.934       .  S
C1767      C1768   1.411       .  A
C1767     Br1782   1.943       .  S
C1768      C1769   1.412       .  A
C1768      C1771   1.497       .  S
C1769      C1770   1.410       .  A
C1769     Br1777   1.934       .  S
C1771      C1776   1.420       .  A
C1772      C1773   1.409       .  A
C1772     Br1783   1.918       .  S
C1773     Br1779   1.931       .  S
C1774      C1775   1.407       .  A
C1775      C1776   1.406       .  A
C1775     Br1784   1.930       .  S
C1776     Br1780   1.931       .  S
C1785      C1790   1.411       .  A
C1786     Br1798   1.925       .  S
C1787      C1788   1.417       .  A
C1787     Br1802   1.931       .  S
C1788      C1789   1.412       .  A
C1788      C1791   1.523       .  S
C1789      C1790   1.415       .  A
C1789     Br1797   1.921       .  S
C1790     Br1801   1.925       .  S
C1791      C1792   1.406       .  A
C1791      C1796   1.392       .  A
C1792      C1793   1.437       .  A
C1792     Br1803   1.936       .  S
C1793      C1794   1.445       .  A
C1793     Br1799   1.913       .  S
C1794      C1795   1.420       .  A
C1795      C1796   1.412       .  A
C1805      C1806   1.437       .  A
C1805      C1810   1.395       .  A
C1806      C1807   1.409       .  A
C1806     Br1818   1.936       .  S
C1807      C1808   1.408       .  A
C1807     Br1822   1.948       .  S
C1808      C1809   1.407       .  A
C1808      C1811   1.482       .  S
C1809      C1810   1.401       .  A
C1809     Br1817   1.930       .  S
C1811      C1812   1.410       .  A
C1812      C1813   1.401       .  A
C1812     Br1823   1.905       .  S
C1813      C1814   1.406       .  A
C1813     Br1819   1.930       .  S
C1815      C1816   1.383       .  A
C1815     Br1824   1.937       .  S
C1816     Br1820   1.917       .  S
C1825      C1827   1.633       .  S
C1825      C1829   1.644       .  S
C1825      C1828   1.629       .  S
C1825      C1849   2.156   1_556  S
C1826      C1830   1.648       .  S
C1826      C1832   1.666       .  S
C1826      C1831   1.623       .  S
C1826      C1848   2.171       .  S
C1827      C1835   1.367       .  A
C1827      C2286   1.554       .  A
C1828      C1839   1.363       .  A
C1828      C2287   1.539       .  A
C1829      C1843   1.382       .  A
C1829      C2288   1.544       .  A
C1830      C2283   1.550       .  A
C1830      C1833   1.379       .  A
C1831      C2284   1.544       .  A
C1831      C1837   1.363       .  A
C1832      C2285   1.550       .  A
C1832      C1840   1.395       .  A
C1833      N1834   1.362       .  A
C1833      H1846   1.081       .  S
N1834      C2291   1.358       .  A
N1834      C2230   1.441       .  S
C1835      N2290   1.354       .  A
C1835      H1836   1.077       .  S
C1837      N2294   1.349       .  A
C1837      H1847   1.069       .  S
N1838      C2293   1.349       .  A
N1838      C1839   1.358       .  A
N1838      C2726   1.425       .  S
C1839      H1845   1.075       .  S
C1840      N2297   1.370       .  A
C1840      H1842   1.081       .  S
N1841      C2296   1.370       .  A
N1841      C1843   1.362       .  A
N1841      C2697   1.465       .  S
C1843      H1844   1.073       .  S
C1848      C1850   1.640       .  S
C1848      C1852   1.619       .  S
C1848      C1851   1.659       .  S
C1849      C1853   1.642       .  S
C1849      C1855   1.614       .  S
C1849      C1854   1.646       .  S
C1850      C1858   1.371       .  A
C1850      C1853   1.553       .  A
C1851      C1862   1.390       .  A
C1851      C1854   1.549       .  A
C1852      C1866   1.351       .  A
C1852      C1855   1.546       .  A
C1853      C1856   1.375       .  A
C1854      C1860   1.379       .  A
C1855      C1863   1.359       .  A
C1856      N1857   1.357       .  A
C1856      H1869   1.079       .  S
N1857      C1858   1.358       .  A
N1857      C2161   1.434       .  S
C1858      H1859   1.079       .  S
C1860      N1861   1.361       .  A
C1860      H1870   1.074       .  S
N1861      C1862   1.363       .  A
N1861      C2201   1.461       .  S
C1862      H1868   1.073       .  S
C1863      N1864   1.350       .  A
C1863      H1865   1.081       .  S
N1864      C1866   1.353       .  A
N1864      C2181   1.412       .  S
C1866      H1867   1.081       .  S
O1871     Zr1883   2.484       .  S
O1871      C1873   1.286       .  A
O1872     Zr1909   2.402       .  S
O1872      C1873   1.270       .  A
C1873      C2150   1.516       .  S
O1874     Zr1886   2.367       .  S
O1874      C1876   1.271       .  A
O1875     Zr1910   2.461       .  S
C1876      C2101   1.416       .  S
O1877     Zr1886   2.349       .  S
O1877      C1879   1.264       .  A
O1878     Zr1909   2.595       .  S
O1878      C2791   1.312       .  A
C1879      O2790   1.335       .  A
C1879      C2261   1.510       .  S
O1880     Zr1883   2.491       .  S
O1881     Zr1910   2.512       .  S
O1881      C1882   1.261       .  A
C1882      C2870   1.373       .  S
Zr1883     O2796   2.428       .  S
Zr1883     O2801   2.248       .  S
Zr1883     O2802   2.328       .  S
O1884     Zr2795   2.434       .  S
O1884      H1927   0.988       .  S
O1885      H1926   0.981       .  S
O1885      H1930   0.988       .  S
Zr1886     O1887   2.438       .  S
Zr1886     O1888   2.443       .  S
Zr1886     O1890   2.254       .  S
Zr1886     O1889   2.432       .  S
Zr1886     O1914   2.375       .  S
Zr1886     O1916   2.419       .  S
O1887      H1928   0.989       .  S
O1887      H1931   0.987       .  S
O1888      H1921   0.990       .  S
O1889     Zr2795   2.246       .  S
O1889     Zr2821   2.312   1_545  S
O1890     Zr2795   2.345       .  S
O1890      H1917   0.919       .  S
O1891     Zr1903   2.469       .  S
O1891      C1893   1.285       .  A
O1892     Zr2822   2.772   1_655  S
O1892      C1893   1.344       .  A
C1893      C2121   1.593       .  S
O1894     Zr1906   2.393   1_565  S
O1894      C3264   1.278       .  A
O1895     Zr1909   2.345       .  S
C1896      O3262   1.277       .  A
C1896      C3312   1.347       .  S
O1897     Zr1906   2.531       .  S
O1897      C1899   1.299       .  A
O1898     Zr1910   2.416   1_655  S
O1898      C1899   1.275       .  A
C1899      C2221   1.520       .  S
O1900     Zr1903   2.473       .  S
O1900      C1902   1.274       .  A
O1901      C1902   1.324       .  A
C1902      C2250   1.571       .  S
Zr1903     O1904   2.494       .  S
Zr1903     O1905   2.411       .  S
Zr1903     O1911   2.397       .  S
Zr1903     O1915   2.431   1_655  S
Zr1903     O1913   2.350       .  S
Zr1903     O1912   2.227       .  S
O1904      H1924   0.990       .  S
O1904      H1929   0.975       .  S
O1905      H1925   0.985       .  S
Zr1906     O2819   2.452       .  S
Zr1906     O2824   2.373       .  S
Zr1906     O2823   2.220       .  S
O1907     Zr2818   2.435       .  S
O1907      H1923   0.989       .  S
O1908      H1922   0.988       .  S
Zr1909     O2801   2.337       .  S
Zr1909     O2826   2.534       .  S
Zr1910     O2804   2.782   1_455  S
Zr1910     O2823   2.279   1_455  S
Zr1910     O2825   2.462   1_455  S
O1911     Zr2818   2.192       .  S
O1911     Zr2822   2.253   1_655  S
O1911      H1919   0.949       .  S
O1912     Zr2818   2.278       .  S
O1913     Zr2822   2.474   1_655  S
O1914     Zr2821   2.551   1_545  S
O1914      H1918   0.945       .  S
O1915      H1920   0.958   1_455  S
O1933     Zr1945   2.478       .  S
O1933      C1935   1.276       .  A
O1934     Zr1971   2.516       .  S
O1934      C1935   1.292       .  A
C1935      C2081   1.521       .  S
O1936     Zr1948   2.466       .  S
O1936      C1938   1.286       .  A
O1937     Zr1972   2.723   1_545  S
C1938      C2041   1.620       .  S
O1939     Zr1948   2.492       .  S
O1939      C1941   1.280       .  A
O1940     Zr2883   2.565   1_545  S
O1940      C1941   1.293       .  A
C1941      C2210   1.552       .  S
O1942     Zr2401   2.547       .  S
O1943     Zr2428   2.470       .  S
O1943      C1944   1.248       .  A
C1944      C3264   1.352       .  S
Zr1945     O2398   2.557   1_554  S
Zr1945     O3314   2.420       .  S
Zr1945     O2864   2.478       .  S
Zr1945     O2863   2.257       .  S
O1946     Zr3313   2.369       .  S
O1946      H1989   0.983       .  S
O1947      H1988   0.994       .  S
O1947      H1992   0.992   1_655  S
Zr1948     O1949   2.486       .  S
Zr1948     O1950   2.400       .  S
Zr1948     O1952   2.315   1_545  S
Zr1948     O1951   2.384   1_545  S
Zr1948     O1976   2.324   1_545  S
Zr1948     O1978   2.347       .  S
O1949      H1990   0.986       .  S
O1949      H1993   0.989       .  S
O1950      H1983   0.985       .  S
O1951     Zr2857   2.348       .  S
O1951     Zr2883   2.300       .  S
O1952     Zr2857   2.469       .  S
O1952      H1979   0.905   1_564  S
O1953     Zr1965   2.402       .  S
O1953      C1955   1.272       .  A
O1954     Zr2884   2.425       .  S
O1954      C1955   1.287       .  A
C1955      C2061   1.432       .  S
O1956     Zr1968   2.327   1_455  S
O1956      C2870   1.253       .  A
O1957     Zr1971   2.376       .  S
C1958      O2868   1.260       .  A
C1958      C2794   1.379       .  S
O1959     Zr1968   2.574       .  S
O1959      C1961   1.302       .  A
O1960     Zr1972   2.399   1_545  S
O1960      C1961   1.270       .  A
C1961      C2170   1.531       .  S
O1962     Zr1965   2.498       .  S
O1962      C1964   1.294       .  A
O1963      C1964   1.292       .  A
C1964      C2190   1.515       .  S
Zr1965     O1966   2.466       .  S
Zr1965     O1967   2.439       .  S
Zr1965     O1973   2.482       .  S
Zr1965     O1977   2.387       .  S
Zr1965     O1975   2.335       .  S
Zr1965     O1974   2.334       .  S
O1966      H1986   0.989       .  S
O1966      H1991   0.989       .  S
O1967      H1987   0.989       .  S
Zr1968     O2881   2.413   1_545  S
Zr1968     O2886   2.461   1_545  S
Zr1968     O2885   2.255   1_545  S
O1969     Zr2880   2.396       .  S
O1969      H1985   0.963       .  S
O1970      H1984   0.985       .  S
Zr1971     O2852   2.604       .  S
Zr1971     O2888   2.316       .  S
Zr1971     O2863   2.208       .  S
Zr1972     O2399   2.476   1_554  S
Zr1972     O2866   2.439       .  S
Zr1972     O2885   2.295       .  S
Zr1972     O2887   2.363       .  S
O1973     Zr2880   2.265       .  S
O1973     Zr2884   2.332       .  S
O1973      H1981   0.969       .  S
O1974     Zr2880   2.412       .  S
O1975     Zr2884   2.481       .  S
O1976     Zr2883   2.266       .  S
O1976      H1980   0.923       .  S
O1977      H1982   0.954       .  S
C1995      C1997   1.621       .  S
C1995      C1999   1.693       .  S
C1995      C1998   1.592       .  S
C1995      C2475   2.170       .  S
C1996      C2000   1.623       .  S
C1996      C2002   1.677       .  S
C1996      C2001   1.606       .  S
C1996      C2018   2.155       .  S
C1997      C2005   1.370       .  A
C1997      C2000   1.542       .  A
C1998      C2009   1.344       .  A
C1998      C2001   1.551       .  A
C1999      C2013   1.415       .  A
C1999      C2002   1.556       .  A
C2000      C2003   1.361       .  A
C2001      C2007   1.353       .  A
C2002      C2010   1.403       .  A
C2003      N2004   1.344       .  A
C2003      H2016   1.063       .  S
N2004      C2005   1.351       .  A
N2004      C2141   1.423       .  S
C2005      H2006   1.076       .  S
C2007      N2008   1.346       .  A
C2007      H2017   1.082       .  S
N2008      C2009   1.339       .  A
N2008      C2110   1.387       .  S
C2009      H2015   1.083       .  S
C2010      N2011   1.370       .  A
C2010      H2012   1.072       .  S
N2011      C2013   1.376       .  A
N2011      C2130   1.492       .  S
C2013      H2014   1.076       .  S
C2018      C2020   1.625       .  S
C2018      C2022   1.587       .  S
C2018      C2021   1.692       .  S
C2019      C2023   1.630       .  S
C2019      C2025   1.623       .  S
C2019      C2024   1.699       .  S
C2019      C2451   2.179       .  S
C2020      C2028   1.366       .  A
C2020      C2023   1.535       .  A
C2021      C2032   1.419       .  A
C2021      C2024   1.556       .  A
C2022      C2036   1.342       .  A
C2022      C2025   1.549       .  A
C2023      C2026   1.374       .  A
C2024      C2030   1.419       .  A
C2025      C2033   1.358       .  A
C2026      N2027   1.351       .  A
C2026      H2039   1.070       .  S
N2027      C2028   1.349       .  A
N2027      C2090   1.432       .  S
C2028      H2029   1.072       .  S
C2030      N2031   1.382       .  A
C2030      H2040   1.076       .  S
N2031      C2032   1.381       .  A
N2031      C2050   1.511       .  S
C2032      H2038   1.081       .  S
C2033      N2034   1.350       .  A
C2033      H2035   1.081       .  S
N2034      C2036   1.335       .  A
N2034      C2070   1.391       .  S
C2036      H2037   1.081       .  S
C2041      C2042   1.447       .  A
C2041      C2502   1.436       .  A
C2042      C2043   1.423       .  A
C2042     Br2054   1.905       .  S
C2043      C2500   1.405       .  A
C2043     Br2058   1.902       .  S
C2044      C2499   1.417       .  A
C2044      C2045   1.440       .  A
C2044      C2047   1.606       .  S
C2045      C2046   1.463       .  A
C2045     Br2053   1.910       .  S
C2046      C2497   1.432       .  A
C2047      C2048   1.435       .  A
C2047      C2052   1.446       .  A
C2048      C2049   1.450       .  A
C2048     Br2515   1.929       .  S
C2049      C2050   1.424       .  A
C2049     Br2511   1.923       .  S
C2050      C2051   1.425       .  A
C2051      C2052   1.454       .  A
C2051     Br2060   1.930       .  S
C2052     Br2056   1.934       .  S
Br2055     C2505   1.925       .  S
Br2059     C2504   1.928       .  S
C2061      C2518   1.408       .  A
C2061      C2066   1.398       .  A
C2062      C2517   1.401       .  A
C2062      C2063   1.389       .  A
C2062     Br2074   1.921       .  S
C2063      C2064   1.406       .  A
C2063     Br2078   1.940       .  S
C2064      C2521   1.405       .  A
C2064      C2067   1.430       .  S
C2065      C2520   1.405       .  A
C2065      C2066   1.382       .  A
C2065     Br2073   1.940       .  S
C2066     Br2077   1.923       .  S
C2067      C2068   1.406       .  A
C2067      C2072   1.409       .  A
C2068      C2069   1.380       .  A
C2068     Br2079   1.937       .  S
C2069      C2070   1.403       .  A
C2069     Br2075   1.933       .  S
C2070      C2071   1.391       .  A
C2071      C2072   1.382       .  A
C2071     Br2080   1.927       .  S
C2072     Br2532   1.932       .  S
Br2076     C2528   1.933       .  S
C2081      C2082   1.389       .  A
C2081      C2086   1.413       .  A
C2082      C2539   1.403       .  A
C2082     Br2094   1.864   1_554  S
C2083      C2538   1.419       .  A
C2083      C2084   1.416       .  A
C2083     Br2098   1.925       .  S
C2084      C2541   1.415       .  A
C2084      C2087   1.504       .  S
C2085      C2540   1.424       .  A
C2085      C2086   1.435       .  A
C2085     Br2093   1.936       .  S
C2087      C2088   1.413       .  A
C2087      C2548   1.418       .  A
C2088      C2089   1.396       .  A
C2088     Br2099   1.911       .  S
C2089      C2090   1.400       .  A
C2089     Br2095   1.930       .  S
C2090      C2091   1.406       .  A
C2091      C2548   1.411       .  A
C2091     Br2556   1.929       .  S
C2092      C2543   1.423       .  A
C2092      C2547   1.415       .  A
C2092     Br2096   1.942       .  S
Br2100     C2547   1.929       .  S
C2101      C2102   1.392       .  A
C2101      C2106   1.406       .  A
C2102      C2103   1.378       .  A
C2102     Br2114   1.914       .  S
C2103      C2104   1.408       .  A
C2103     Br2118   1.942       .  S
C2104      C2105   1.396       .  A
C2104      C2107   1.422       .  S
C2105      C2106   1.385       .  A
C2105     Br2113   1.942       .  S
C2106     Br2117   1.911       .  S
C2107      C2108   1.408       .  A
C2107      C2112   1.409       .  A
C2108      C2109   1.369       .  A
C2108     Br2119   1.939       .  S
C2109      C2110   1.401       .  A
C2109     Br2115   1.944       .  S
C2110      C2111   1.392       .  A
C2111      C2112   1.385       .  A
C2111     Br2120   1.927       .  S
C2112     Br2116   1.933       .  S
C2121      C2122   1.417       .  A
C2121      C2126   1.436       .  A
C2122      C2123   1.450       .  A
C2122     Br2134   1.894       .  S
C2123      C2124   1.432       .  A
C2123     Br2138   1.915       .  S
C2124      C2125   1.414       .  A
C2124      C2127   1.578       .  S
C2125      C2126   1.430       .  A
C2125     Br2133   1.916       .  S
C2126     Br2137   1.920       .  S
C2127      C2128   1.429       .  A
C2127      C2132   1.440       .  A
C2128      C2129   1.439       .  A
C2128     Br2139   1.932       .  S
C2129      C2130   1.419       .  A
C2129     Br2135   1.922       .  S
C2130      C2131   1.418       .  A
C2131      C2132   1.442       .  A
C2131     Br2140   1.929       .  S
C2132     Br2136   1.932       .  S
C2141      C2142   1.401       .  A
C2141      C2146   1.387       .  A
C2142      C2143   1.407       .  A
C2142     Br2154   1.926       .  S
C2143      C2144   1.422       .  A
C2143     Br2158   1.923       .  S
C2144      C2145   1.424       .  A
C2144      C2147   1.513       .  S
C2145      C2146   1.396       .  A
C2145     Br2153   1.888       .  S
C2146     Br2157   1.940       .  S
C2147      C2148   1.417       .  A
C2147      C2152   1.421       .  A
C2148      C2149   1.411       .  A
C2148     Br2159   1.936       .  S
C2149      C2150   1.422       .  A
C2149     Br2155   1.931       .  S
C2150      C2151   1.418       .  A
C2151      C2152   1.416       .  A
C2151     Br2160   1.930       .  S
C2152     Br2156   1.938       .  S
C2161      C2162   1.405       .  A
C2161      C2166   1.397       .  A
C2162      C2163   1.409       .  A
C2162     Br2174   1.924       .  S
C2163      C2164   1.420       .  A
C2163     Br2178   1.931       .  S
C2164      C2165   1.420       .  A
C2164      C2167   1.507       .  S
C2165      C2166   1.402       .  A
C2165     Br2173   1.910       .  S
C2166     Br2177   1.933       .  S
C2167      C2168   1.412       .  A
C2167      C2172   1.408       .  A
C2168      C2169   1.420       .  A
C2168     Br2179   1.937       .  S
C2169      C2170   1.427       .  A
C2169     Br2175   1.919   1_545  S
C2170      C2171   1.423       .  A
C2171      C2172   1.411       .  A
C2171     Br2180   1.899       .  S
C2172     Br2176   1.941       .  S
C2181      C2182   1.398       .  A
C2181      C2186   1.394       .  A
C2182      C2183   1.391       .  A
C2182     Br2194   1.936       .  S
C2183      C2184   1.426       .  A
C2183     Br2198   1.929       .  S
C2184      C2185   1.424       .  A
C2184      C2187   1.495       .  S
C2185      C2186   1.397       .  A
C2185     Br2193   1.920       .  S
C2186     Br2197   1.936       .  S
C2187      C2188   1.401       .  A
C2187      C2192   1.399       .  A
C2188      C2189   1.411       .  A
C2188     Br2199   1.901       .  S
C2189      C2190   1.430       .  A
C2189     Br2195   1.930   1_655  S
C2190      C2191   1.429       .  A
C2191      C2192   1.404       .  A
C2191     Br2200   1.915       .  S
C2192     Br2196   1.942       .  S
C2201      C2202   1.414       .  A
C2201      C2206   1.416       .  A
C2202      C2203   1.419       .  A
C2202     Br2214   1.927       .  S
C2203      C2204   1.418       .  A
C2203     Br2218   1.925       .  S
C2204      C2205   1.416       .  A
C2204      C2207   1.527       .  S
C2205      C2206   1.415       .  A
C2205     Br2213   1.917       .  S
C2206     Br2217   1.929       .  S
C2207      C2208   1.417       .  A
C2207      C2212   1.409       .  A
C2208      C2209   1.428       .  A
C2208     Br2219   1.922       .  S
C2209      C2210   1.431       .  A
C2209     Br3127   1.930   1_545  S
C2210      C2211   1.430       .  A
C2211      C2212   1.412       .  A
C2211     Br2220   1.913       .  S
C2212     Br2216   1.941       .  S
Br2215     C3121   1.924       .  S
C2221      C2222   1.429       .  A
C2221      C2226   1.420       .  A
C2222      C2223   1.419       .  A
C2222     Br2234   1.935   1_655  S
C2223      C2224   1.413       .  A
C2223     Br2238   1.935       .  S
C2224      C2225   1.416       .  A
C2224      C2227   1.515       .  S
C2225      C2226   1.416       .  A
C2225     Br2233   1.933       .  S
C2226     Br3149   1.933       .  S
C2227      C2684   1.425       .  A
C2227      C2232   1.418       .  A
C2228      C2683   1.423       .  A
C2228      C2229   1.406       .  A
C2228     Br2239   1.922       .  S
C2229      C2686   1.401       .  A
C2229     Br2235   1.936       .  S
C2230      C2685   1.404       .  A
C2230      C2231   1.405       .  A
C2231      C2232   1.405       .  A
C2231     Br2240   1.930       .  S
C2232     Br2236   1.927       .  S
Br2237     C3138   1.926       .  S
C2241      C2698   1.414       .  A
C2241      C2246   1.408       .  A
C2241      N2297   1.454       .  S
C2242      C2697   1.413       .  A
C2242      C2699   1.426       .  A
C2242     Br2254   1.924       .  S
C2243      C2698   1.419       .  A
C2243      C2244   1.417       .  A
C2243     Br2258   1.931       .  S
C2244      C2245   1.414       .  A
C2244      C2247   1.516       .  S
C2245      C2246   1.414       .  A
C2245     Br2253   1.924       .  S
C2246     Br2257   1.923       .  S
C2247      C2248   1.407       .  A
C2247      C2252   1.397       .  A
C2248      C2249   1.431       .  A
C2248     Br2259   1.941       .  S
C2249      C2250   1.443       .  A
C2249     Br2255   1.912       .  S
C2250      C2251   1.413       .  A
C2251      C2252   1.408       .  A
C2251     Br2716   1.882       .  S
C2252     Br2712   1.914       .  S
Br2256     C2708   1.937   1_554  S
Br2260     C2707   1.907   1_554  S
C2261      C2262   1.434       .  A
C2261      C2266   1.394       .  A
C2262      C2263   1.412       .  A
C2262     Br2274   1.937       .  S
C2263      C2264   1.413       .  A
C2263     Br2278   1.945       .  S
C2264      C2265   1.416       .  A
C2264      C2267   1.500       .  S
C2265      C2266   1.403       .  A
C2265     Br2273   1.924       .  S
C2266     Br3189   1.889       .  S
C2267      C2268   1.414       .  A
C2267      C2728   1.417       .  A
C2268      C2269   1.404       .  A
C2268     Br2279   1.908       .  S
C2269      C2270   1.400       .  A
C2269     Br2275   1.926       .  S
C2270      C2727   1.407       .  A
C2270      N2294   1.432       .  S
C2271      C2726   1.405       .  A
C2271      C2272   1.384       .  A
C2271     Br2280   1.938       .  S
C2272      C2723   1.416       .  A
C2272     Br2276   1.918       .  S
Br2277     C3178   1.906       .  S
C2281      C2283   1.639       .  S
C2281      C2285   1.633       .  S
C2281      C2284   1.629       .  S
C2281      C2305   2.155       .  S
C2282      C2286   1.640       .  S
C2282      C2288   1.663       .  S
C2282      C2287   1.615       .  S
C2282      C2304   2.154       .  S
C2283      C2291   1.374       .  A
C2284      C2295   1.363       .  A
C2285      C2299   1.377       .  A
C2286      C2289   1.377       .  A
C2287      C2293   1.358       .  A
C2288      C2296   1.399       .  A
C2289      N2290   1.357       .  A
C2289      H2302   1.079       .  S
N2290      C2686   1.434       .  S
C2291      H2292   1.079       .  S
C2293      H2303   1.073       .  S
N2294      C2295   1.353       .  A
C2295      H2301   1.069       .  S
C2296      H2298   1.081       .  S
N2297      C2299   1.356       .  A
C2299      H2300   1.082       .  S
C2304      C2306   1.656       .  S
C2304      C2308   1.610       .  S
C2304      C2307   1.649       .  S
C2305      C2309   1.635       .  S
C2305      C2311   1.647       .  S
C2305      C2310   1.663       .  S
C2306      C2314   1.385       .  A
C2306      C2309   1.545       .  A
C2307      C2318   1.393       .  A
C2307      C2310   1.543       .  A
C2308      C2322   1.348       .  A
C2308      C2311   1.530       .  A
C2309      C2312   1.380       .  A
C2310      C2316   1.392       .  A
C2311      C2319   1.385       .  A
C2312      N2313   1.359       .  A
C2312      H2325   1.081       .  S
N2313      C2314   1.365       .  A
N2313      C2617   1.450       .  S
C2314      H2315   1.077       .  S
C2316      N2317   1.368       .  A
C2316      H2326   1.072       .  S
N2317      C2318   1.363       .  A
N2317      C2657   1.474       .  S
C2318      H2324   1.073       .  S
C2319      N2320   1.375       .  A
C2319      H2321   1.074       .  S
N2320      C2322   1.358       .  A
N2320      C2637   1.458       .  S
C2322      H2323   1.072       .  S
O2327     Zr2339   2.477       .  S
O2327      C2329   1.287       .  A
O2328     Zr2365   2.457       .  S
O2328      C2329   1.284       .  A
C2329      C2606   1.517       .  S
O2330     Zr2342   2.369       .  S
O2330      C2332   1.273       .  A
O2331     Zr2366   2.521   1_455  S
C2332      C2557   1.436       .  S
O2333     Zr2342   2.402       .  S
O2333      C2335   1.281       .  A
O2334     Zr2365   2.678       .  S
O2334      C3247   1.326       .  A
C2335      O3246   1.310       .  A
C2335      C2717   1.504       .  S
O2336     Zr2339   2.479       .  S
O2337     Zr2366   2.638   1_455  S
O2337      C2338   1.315       .  A
C2338      C3326   1.386       .  S
Zr2339     O3252   2.435       .  S
Zr2339     O3257   2.255       .  S
Zr2339     O3258   2.337       .  S
O2340     Zr3251   2.435       .  S
O2340      H2383   0.990       .  S
O2341      H2382   0.984       .  S
O2341      H2386   0.982       .  S
Zr2342     O2343   2.439       .  S
Zr2342     O2344   2.415       .  S
Zr2342     O2346   2.260       .  S
Zr2342     O2345   2.396       .  S
Zr2342     O2370   2.349       .  S
Zr2342     O2372   2.435       .  S
O2343      H2384   0.991       .  S
O2343      H2387   0.988       .  S
O2344      H2377   0.990       .  S
O2345     Zr3251   2.250       .  S
O2345     Zr3277   2.322   1_545  S
O2346     Zr3251   2.328       .  S
O2346      H2373   0.905       .  S
O2347     Zr2359   2.474       .  S
O2347      C2349   1.282       .  A
O2348     Zr3278   2.758   1_655  S
O2348      C2349   1.342       .  A
C2349      C2577   1.593       .  S
O2350     Zr2362   2.418   1_565  S
O2350      C2808   1.285       .  A
O2351     Zr2365   2.387       .  S
C2352      O2806   1.286       .  A
C2352      C2856   1.353       .  S
O2353     Zr2362   2.530       .  S
O2353      C2355   1.298       .  A
O2354     Zr2366   2.410       .  S
O2354      C2355   1.270       .  A
C2355      C2677   1.506       .  S
O2356     Zr2359   2.510       .  S
O2356      C2358   1.278       .  A
O2357      C2358   1.351       .  A
C2358      C2706   1.627       .  S
Zr2359     O2360   2.524       .  S
Zr2359     O2361   2.415       .  S
Zr2359     O2367   2.409       .  S
Zr2359     O2371   2.413   1_655  S
Zr2359     O2369   2.386       .  S
Zr2359     O2368   2.251       .  S
O2360      H2380   0.986       .  S
O2360      H2385   0.987       .  S
O2361      H2381   0.983       .  S
Zr2362     O3275   2.438       .  S
Zr2362     O3279   2.238       .  S
Zr2362     O3280   2.294   1_545  S
O2363     Zr3274   2.453       .  S
O2363      H2379   0.986       .  S
O2364      H2378   0.985       .  S
Zr2365     O3257   2.321       .  S
Zr2365     O3282   2.568       .  S
Zr2366     O3260   2.743       .  S
Zr2366     O3279   2.297       .  S
Zr2366     O3281   2.379   1_545  S
O2367     Zr3274   2.211       .  S
O2367     Zr3278   2.263   1_655  S
O2367      H2375   0.951       .  S
O2368     Zr3274   2.301       .  S
O2369     Zr3278   2.451   1_655  S
O2370     Zr3277   2.537   1_545  S
O2370      H2374   0.950       .  S
O2371      H2376   0.956   1_455  S
O2389     Zr2401   2.488       .  S
O2389      C2391   1.285       .  A
O2390     Zr2427   2.429       .  S
O2390      C2391   1.272       .  A
C2391      C2537   1.497       .  S
O2392     Zr2404   2.494       .  S
O2392      C2394   1.290       .  A
O2393     Zr2428   2.721   1_545  S
C2394      C2497   1.631       .  S
O2395     Zr2404   2.517       .  S
O2395      C2397   1.278       .  A
O2396     Zr3339   2.619       .  S
O2396      C2397   1.301   1_565  A
C2397      C2666   1.571       .  S
O2399      C2400   1.244       .  A
C2400      C2808   1.338       .  S
Zr2401     O2858   2.379       .  S
Zr2401     O3319   2.343       .  S
Zr2401     O3320   2.463       .  S
O2402     Zr2857   2.369   1_556  S
O2402      H2445   0.993       .  S
O2403      H2444   0.997       .  S
O2403      H2448   0.978       .  S
Zr2404     O2405   2.356       .  S
Zr2404     O2406   2.443       .  S
Zr2404     O2408   2.276   1_545  S
Zr2404     O2432   2.302   1_545  S
Zr2404     O2407   2.294   1_545  S
Zr2404     O2434   2.305       .  S
O2405      H2446   0.976       .  S
O2405      H2449   0.986       .  S
O2406      H2439   0.987       .  S
O2407     Zr3313   2.272       .  S
O2407     Zr3339   2.195       .  S
O2408     Zr3313   2.486       .  S
O2408      H2435   0.915   1_565  S
O2409     Zr2421   2.371       .  S
O2409      C2411   1.268       .  A
O2410     Zr3340   2.441       .  S
O2410      C2411   1.292       .  A
C2411      C2517   1.419       .  S
O2412     Zr2424   2.993   1_455  S
O2412      C3326   1.288       .  A
O2413     Zr2427   2.372       .  S
C2414      O3324   1.252       .  A
C2414      C3250   1.368       .  S
O2415     Zr2424   2.659       .  S
O2415      C2417   1.327       .  A
O2416     Zr2428   2.372   1_545  S
O2416      C2417   1.275       .  A
C2417      C2626   1.552       .  S
O2418     Zr2421   2.500       .  S
O2418      C2420   1.296       .  A
O2419      C2420   1.301       .  A
C2420      C2646   1.536       .  S
Zr2421     O2422   2.462       .  S
Zr2421     O2423   2.434       .  S
Zr2421     O2429   2.474       .  S
Zr2421     O2430   2.392       .  S
Zr2421     O2433   2.389       .  S
Zr2421     O2431   2.234       .  S
O2422      H2442   0.990       .  S
O2422      H2447   0.990       .  S
O2423      H2443   0.991       .  S
Zr2424     O3337   2.395   1_545  S
Zr2424     O3342   2.529   1_545  S
Zr2424     O3341   2.337   1_545  S
O2425     Zr3336   2.386       .  S
O2425      H2441   0.988       .  S
O2426      H2440   0.982       .  S
Zr2427     O3308   2.552       .  S
Zr2427     O3319   2.309       .  S
Zr2427     O3344   2.269       .  S
Zr2428     O3322   2.408       .  S
Zr2428     O3341   2.332       .  S
Zr2428     O3343   2.505       .  S
O2429     Zr3336   2.259       .  S
O2429     Zr3340   2.295       .  S
O2429      H2437   0.964       .  S
O2430     Zr3336   2.465       .  S
O2431     Zr3340   2.362       .  S
O2432     Zr3339   2.292       .  S
O2432      H2436   0.950       .  S
O2433      H2438   0.947       .  S
C2451      C2453   1.645       .  S
C2451      C2455   1.686       .  S
C2451      C2454   1.593       .  S
C2452      C2456   1.639       .  S
C2452      C2458   1.682       .  S
C2452      C2457   1.614       .  S
C2452      C2474   2.169       .  S
C2453      C2461   1.382       .  A
C2453      C2456   1.552       .  A
C2454      C2465   1.346       .  A
C2454      C2457   1.548       .  A
C2455      C2469   1.411       .  A
C2455      C2458   1.554       .  A
C2456      C2459   1.384       .  A
C2457      C2463   1.365       .  A
C2458      C2466   1.405       .  A
C2459      N2460   1.351       .  A
C2459      H2472   1.073       .  S
N2460      C2461   1.351       .  A
N2460      C2597   1.449       .  S
C2461      H2462   1.068       .  S
C2463      N2464   1.347       .  A
C2463      H2473   1.080       .  S
N2464      C2465   1.339       .  A
N2464      C2566   1.398       .  S
C2465      H2471   1.082       .  S
C2466      N2467   1.370       .  A
C2466      H2468   1.074       .  S
N2467      C2469   1.377       .  A
N2467      C2586   1.491       .  S
C2469      H2470   1.080       .  S
C2474      C2476   1.639   1_556  S
C2474      C2478   1.604       .  S
C2474      C2477   1.687   1_556  S
C2475      C2479   1.651       .  S
C2475      C2481   1.616       .  S
C2475      C2480   1.684       .  S
C2476      C2484   1.376   1_554  A
C2476      C2479   1.547       .  A
C2477      C2488   1.416   1_554  A
C2477      C2480   1.550       .  A
C2478      C2492   1.356       .  A
C2478      C2481   1.545   1_556  A
C2479      C2482   1.395       .  A
C2480      C2486   1.411       .  A
C2481      C2489   1.364       .  A
C2482      N2483   1.364       .  A
C2482      H2495   1.077       .  S
N2483      C2484   1.354   1_554  A
N2483      C2546   1.461       .  S
C2484      H2485   1.070       .  S
C2486      N2487   1.376       .  A
C2486      H2496   1.074       .  S
N2487      C2488   1.379   1_554  A
N2487      C2506   1.503       .  S
C2488      H2494   1.080       .  S
C2489      N2490   1.347       .  A
C2489      H2491   1.077       .  S
N2490      C2492   1.340   1_554  A
N2490      C2526   1.409       .  S
C2492      H2493   1.079       .  S
C2497      C2498   1.440       .  A
C2498      C2499   1.445       .  A
C2498     Br2510   1.878       .  S
C2499     Br2514   1.932       .  S
C2500      C2501   1.432       .  A
C2500      C2503   1.595       .  S
C2501      C2502   1.461       .  A
C2501     Br2509   1.897   1_554  S
C2503      C2504   1.434       .  A
C2503      C2508   1.441       .  A
C2504      C2505   1.451       .  A
C2505      C2506   1.426       .  A
C2506      C2507   1.418       .  A
C2507      C2508   1.445       .  A
C2507     Br2516   1.929   1_554  S
C2508     Br2512   1.933   1_554  S
C2517      C2522   1.387       .  A
C2518      C2519   1.395   1_554  A
C2518     Br2530   1.928   1_554  S
C2519      C2520   1.404   1_556  A
C2519     Br2534   1.930       .  S
C2520      C2523   1.441       .  S
C2521      C2522   1.381       .  A
C2521     Br2529   1.936       .  S
C2522     Br2533   1.914       .  S
C2523      C2524   1.408   1_554  A
C2523      C2528   1.405       .  A
C2524      C2525   1.386       .  A
C2524     Br2535   1.933       .  S
C2525      C2526   1.401   1_556  A
C2525     Br2531   1.930       .  S
C2526      C2527   1.405       .  A
C2527      C2528   1.392       .  A
C2527     Br2536   1.930       .  S
C2537      C2538   1.408       .  A
C2537      C2542   1.397       .  A
C2538     Br2550   1.920       .  S
C2539      C2540   1.410       .  A
C2539     Br2554   1.921   1_554  S
C2540      C2543   1.524       .  S
C2541      C2542   1.405       .  A
C2541     Br2549   1.933       .  S
C2543      C2544   1.423   1_554  A
C2544      C2545   1.419   1_556  A
C2544     Br2555   1.928       .  S
C2545      C2546   1.418       .  A
C2545     Br2551   1.936   1_554  S
C2546      C2547   1.415       .  A
C2548     Br2552   1.918       .  S
C2557      C2558   1.398       .  A
C2557      C2562   1.411       .  A
C2558      C2559   1.382       .  A
C2558     Br2570   1.911       .  S
C2559      C2560   1.406       .  A
C2559     Br2574   1.943       .  S
C2560      C2561   1.397       .  A
C2560      C2563   1.433       .  S
C2561      C2562   1.391       .  A
C2561     Br2569   1.934       .  S
C2562     Br2573   1.921       .  S
C2563      C2564   1.405       .  A
C2563      C2568   1.407       .  A
C2564      C2565   1.377       .  A
C2564     Br2575   1.935       .  S
C2565      C2566   1.402       .  A
C2565     Br2571   1.937       .  S
C2566      C2567   1.399       .  A
C2567      C2568   1.391       .  A
C2567     Br2576   1.927       .  S
C2568     Br2572   1.931       .  S
C2577      C2578   1.418       .  A
C2577      C2582   1.428       .  A
C2578      C2579   1.453       .  A
C2578     Br2590   1.895       .  S
C2579      C2580   1.436       .  A
C2579     Br2594   1.904       .  S
C2580      C2581   1.421       .  A
C2580      C2583   1.583       .  S
C2581      C2582   1.421       .  A
C2581     Br2589   1.925       .  S
C2582     Br2593   1.908       .  S
C2583      C2584   1.436       .  A
C2583      C2588   1.439       .  A
C2584      C2585   1.442       .  A
C2584     Br2595   1.932       .  S
C2585      C2586   1.418       .  A
C2585     Br2591   1.926       .  S
C2586      C2587   1.416       .  A
C2587      C2588   1.440       .  A
C2587     Br2596   1.929       .  S
C2588     Br2592   1.930       .  S
C2597      C2598   1.411       .  A
C2597      C2602   1.411       .  A
C2598      C2599   1.413       .  A
C2598     Br2610   1.928       .  S
C2599      C2600   1.418       .  A
C2599     Br2614   1.923       .  S
C2600      C2601   1.414       .  A
C2600      C2603   1.511       .  S
C2601      C2602   1.407       .  A
C2601     Br2609   1.924       .  S
C2602     Br2613   1.929       .  S
C2603      C2604   1.409       .  A
C2603      C2608   1.412       .  A
C2604      C2605   1.406       .  A
C2604     Br2615   1.929       .  S
C2605      C2606   1.418       .  A
C2605     Br2611   1.915       .  S
C2606      C2607   1.423       .  A
C2607      C2608   1.422       .  A
C2607     Br2616   1.926       .  S
C2608     Br2612   1.926       .  S
C2617      C2618   1.412       .  A
C2617      C2622   1.402       .  A
C2618      C2619   1.417       .  A
C2618     Br2630   1.925       .  S
C2619      C2620   1.422       .  A
C2619     Br2634   1.934       .  S
C2620      C2621   1.420       .  A
C2620      C2623   1.524       .  S
C2621      C2622   1.411       .  A
C2621     Br2629   1.907       .  S
C2622     Br2633   1.931       .  S
C2623      C2624   1.411       .  A
C2623      C2628   1.409       .  A
C2624      C2625   1.425       .  A
C2624     Br2635   1.936       .  S
C2625      C2626   1.437       .  A
C2625     Br2631   1.925   1_545  S
C2626      C2627   1.428       .  A
C2627      C2628   1.421       .  A
C2627     Br2636   1.894       .  S
C2628     Br2632   1.934       .  S
C2637      C2638   1.409       .  A
C2637      C2642   1.413       .  A
C2638      C2639   1.412       .  A
C2638     Br2650   1.932       .  S
C2639      C2640   1.421       .  A
C2639     Br2654   1.906       .  S
C2640      C2641   1.403       .  A
C2640      C2643   1.501       .  S
C2641      C2642   1.395       .  A
C2641     Br2649   1.907       .  S
C2642     Br2653   1.931       .  S
C2643      C2644   1.408       .  A
C2643      C2648   1.402       .  A
C2644      C2645   1.422       .  A
C2644     Br2655   1.932       .  S
C2645      C2646   1.432       .  A
C2645     Br2651   1.919   1_655  S
C2646      C2647   1.440       .  A
C2647      C2648   1.416       .  A
C2647     Br2656   1.934       .  S
C2648     Br2652   1.946       .  S
C2657      C2658   1.422       .  A
C2657      C2662   1.410       .  A
C2658      C2659   1.432       .  A
C2658     Br2670   1.926       .  S
C2659      C2660   1.422       .  A
C2659     Br2674   1.921       .  S
C2660      C2661   1.420       .  A
C2660      C2663   1.554       .  S
C2661      C2662   1.417       .  A
C2661     Br2669   1.890       .  S
C2662     Br2673   1.933       .  S
C2663      C2664   1.425       .  A
C2663      C2668   1.418       .  A
C2664      C2665   1.441       .  A
C2664     Br2675   1.935       .  S
C2665      C2666   1.431       .  A
C2665     Br3583   1.924   1_545  S
C2666      C2667   1.437       .  A
C2667      C2668   1.426       .  A
C2667     Br2676   1.925       .  S
C2668     Br2672   1.938       .  S
Br2671     C3577   1.931       .  S
C2677      C2678   1.420       .  A
C2677      C2682   1.413       .  A
C2678      C2679   1.412       .  A
C2678     Br2690   1.920   1_655  S
C2679      C2680   1.411       .  A
C2679     Br2694   1.940       .  S
C2680      C2681   1.418       .  A
C2680      C2683   1.502       .  S
C2681      C2682   1.413       .  A
C2681     Br2689   1.937       .  S
C2682     Br3605   1.921       .  S
C2683      C2688   1.418       .  A
C2684      C2685   1.414       .  A
C2684     Br2695   1.917       .  S
C2685     Br2691   1.931       .  S
C2686      C2687   1.408       .  A
C2687      C2688   1.405       .  A
C2687     Br2696   1.929       .  S
C2688     Br2692   1.935       .  S
Br2693     C3594   1.927       .  S
C2697      C2702   1.415       .  A
C2698     Br2710   1.925       .  S
C2699      C2700   1.420       .  A
C2699     Br2714   1.926       .  S
C2700      C2701   1.413       .  A
C2700      C2703   1.534       .  S
C2701      C2702   1.422       .  A
C2701     Br2709   1.919       .  S
C2702     Br2713   1.927       .  S
C2703      C2704   1.398       .  A
C2703      C2708   1.392       .  A
C2704      C2705   1.435       .  A
C2704     Br2715   1.915       .  S
C2705      C2706   1.439       .  A
C2705     Br2711   1.908       .  S
C2706      C2707   1.472       .  A
C2707      C2708   1.434       .  A
C2717      C2718   1.419       .  A
C2717      C2722   1.412       .  A
C2718      C2719   1.391       .  A
C2718     Br2730   1.925       .  S
C2719      C2720   1.405       .  A
C2719     Br2734   1.939       .  S
C2720      C2721   1.416       .  A
C2720      C2723   1.487       .  S
C2721      C2722   1.411       .  A
C2721     Br2729   1.936       .  S
C2722     Br3645   1.890   1_545  S
C2723      C2724   1.418       .  A
C2724      C2725   1.403       .  A
C2724     Br2735   1.928       .  S
C2725      C2726   1.402       .  A
C2725     Br2731   1.924       .  S
C2727      C2728   1.394       .  A
C2727     Br2736   1.935       .  S
C2728     Br2732   1.914       .  S
Br2733     C3634   1.858       .  S
C2737      C2739   1.637       .  S
C2737      C2741   1.630       .  S
C2737      C2740   1.631       .  S
C2737      C2761   2.159   1_556  S
C2738      C2742   1.640       .  S
C2738      C2744   1.669       .  S
C2738      C2743   1.604       .  S
C2738      C2760   2.146       .  S
C2739      C2747   1.371       .  A
C2739      C3198   1.558       .  A
C2740      C2751   1.363       .  A
C2740      C3199   1.548       .  A
C2741      C2755   1.375       .  A
C2741      C3200   1.548       .  A
C2742      C3195   1.553       .  A
C2742      C2745   1.380       .  A
C2743      C3196   1.535       .  A
C2743      C2749   1.354       .  A
C2744      C3197   1.542       .  A
C2744      C2752   1.407       .  A
C2745      N2746   1.358       .  A
C2745      H2758   1.081       .  S
N2746      C3203   1.360       .  A
N2746      C3142   1.442       .  S
C2747      N3202   1.355       .  A
C2747      H2748   1.079       .  S
C2749      N3206   1.346       .  A
C2749      H2759   1.073       .  S
N2750      C3205   1.350       .  A
N2750      C2751   1.355       .  A
N2750      C3638   1.427       .  S
C2751      H2757   1.076       .  S
C2752      N3209   1.375       .  A
C2752      H2754   1.082       .  S
N2753      C3208   1.369       .  A
N2753      C2755   1.356       .  A
N2753      C3609   1.449       .  S
C2755      H2756   1.083       .  S
C2760      C2762   1.645       .  S
C2760      C2764   1.606       .  S
C2760      C2763   1.651       .  S
C2761      C2765   1.642       .  S
C2761      C2767   1.641       .  S
C2761      C2766   1.664       .  S
C2762      C2770   1.379       .  A
C2762      C2765   1.545       .  A
C2763      C2774   1.395       .  A
C2763      C2766   1.545       .  A
C2764      C2778   1.348       .  A
C2764      C2767   1.529       .  A
C2765      C2768   1.382       .  A
C2766      C2772   1.391       .  A
C2767      C2775   1.380       .  A
C2768      N2769   1.363       .  A
C2768      H2781   1.081       .  S
N2769      C2770   1.362       .  A
N2769      C3073   1.450       .  S
C2770      H2771   1.077       .  S
C2772      N2773   1.369       .  A
C2772      H2782   1.073       .  S
N2773      C2774   1.363       .  A
N2773      C3113   1.473       .  S
C2774      H2780   1.075       .  S
C2775      N2776   1.374       .  A
C2775      H2777   1.076       .  S
N2776      C2778   1.358       .  A
N2776      C3093   1.454       .  S
C2778      H2779   1.073       .  S
O2783     Zr2795   2.496   1_565  S
O2783      C2785   1.290       .  A
O2784     Zr2821   2.448       .  S
O2784      C2785   1.275       .  A
C2785      C3062   1.512       .  S
O2786     Zr2798   2.373       .  S
O2786      C2788   1.273       .  A
O2787     Zr2822   2.447       .  S
C2788      C3013   1.439       .  S
O2789     Zr2798   2.377       .  S
O2789      C2791   1.275       .  A
O2790     Zr2821   2.700   1_545  S
C2791      C3173   1.504       .  S
O2792     Zr2795   2.484       .  S
O2793     Zr2822   2.508       .  S
O2793      C2794   1.254       .  A
O2796      H2839   0.989       .  S
O2797      H2838   0.985       .  S
O2797      H2842   0.986       .  S
Zr2798     O2799   2.443       .  S
Zr2798     O2800   2.432       .  S
Zr2798     O2802   2.255       .  S
Zr2798     O2801   2.414       .  S
Zr2798     O2826   2.353       .  S
Zr2798     O2828   2.433       .  S
O2799      H2840   0.991       .  S
O2799      H2843   0.988       .  S
O2800      H2833   0.990       .  S
O2802      H2829   0.908       .  S
O2803     Zr2815   2.462       .  S
O2803      C2805   1.278       .  A
O2804      C2805   1.348   1_545  A
C2805      C3033   1.601       .  S
O2806     Zr2818   2.425       .  S
O2807     Zr2821   2.412       .  S
O2809     Zr2818   2.544       .  S
O2809      C2811   1.302       .  A
O2810     Zr2822   2.405   1_655  S
O2810      C2811   1.275       .  A
C2811      C3133   1.516       .  S
O2812     Zr2815   2.500       .  S
O2812      C2814   1.274       .  A
O2813      C2814   1.331       .  A
C2814      C3162   1.609       .  S
Zr2815     O2816   2.523       .  S
Zr2815     O2817   2.425       .  S
Zr2815     O2823   2.446   1_565  S
Zr2815     O2824   2.287   1_565  S
Zr2815     O2827   2.426   1_655  S
Zr2815     O2825   2.392   1_565  S
O2816      H2836   0.988       .  S
O2816      H2841   0.986       .  S
O2817      H2837   0.981       .  S
O2819      H2835   0.987       .  S
O2820      H2834   0.984       .  S
O2823      H2831   0.953       .  S
O2826      H2830   0.946       .  S
O2827      H2832   0.957   1_455  S
O2845     Zr2857   2.477       .  S
O2845      C2847   1.282       .  A
O2846     Zr2883   2.437       .  S
O2846      C2847   1.274       .  A
C2847      C2993   1.497       .  S
O2848     Zr2860   2.498       .  S
O2848      C2850   1.291       .  A
O2849     Zr2884   2.677       .  S
C2850      C2953   1.607       .  S
O2851     Zr2860   2.492       .  S
O2851      C2853   1.278       .  A
O2852      C2853   1.297       .  A
C2853      C3122   1.565       .  S
O2854     Zr3313   2.550       .  S
O2855     Zr3340   2.485       .  S
O2855      C2856   1.246       .  A
Zr2857     O3310   2.540   1_554  S
O2858      H2901   0.993       .  S
O2859      H2900   0.987       .  S
O2859      H2904   0.992   1_655  S
Zr2860     O2861   2.401       .  S
Zr2860     O2862   2.442       .  S
Zr2860     O2864   2.278       .  S
Zr2860     O2888   2.325       .  S
Zr2860     O2890   2.384       .  S
Zr2860     O2863   2.316       .  S
O2861      H2902   0.964   1_554  S
O2861      H2905   0.989       .  S
O2862      H2895   0.985       .  S
O2864      H2891   0.901   1_554  S
O2865     Zr2877   2.364       .  S
O2865      C2867   1.267       .  A
O2866      C2867   1.291       .  A
C2867      C2973   1.412       .  S
O2868     Zr2880   2.328   1_455  S
O2869     Zr2883   2.388   1_545  S
O2871     Zr2880   2.589       .  S
O2871      C2873   1.307       .  A
O2872     Zr2884   2.412       .  S
O2872      C2873   1.278       .  A
C2873      C3082   1.544       .  S
O2874     Zr2877   2.504       .  S
O2874      C2876   1.297       .  A
O2875      C2876   1.309       .  A
C2876      C3102   1.540       .  S
Zr2877     O2878   2.462       .  S
Zr2877     O2879   2.436       .  S
Zr2877     O2885   2.489       .  S
Zr2877     O2886   2.393       .  S
Zr2877     O2889   2.388       .  S
Zr2877     O2887   2.234       .  S
O2878      H2898   0.990       .  S
O2878      H2903   0.988       .  S
O2879      H2899   0.990       .  S
O2881      H2897   0.988       .  S
O2882      H2896   0.978       .  S
Zr2884     O3311   2.464   1_554  S
O2885      H2893   0.966       .  S
O2888      H2892   0.945       .  S
O2889      H2894   0.943       .  S
C2907      C2909   1.648       .  S
C2907      C2911   1.694       .  S
C2907      C2910   1.577       .  S
C2907      C3387   2.182       .  S
C2908      C2912   1.641       .  S
C2908      C2914   1.683       .  S
C2908      C2913   1.620       .  S
C2908      C2930   2.174       .  S
C2909      C2917   1.381       .  A
C2909      C2912   1.553       .  A
C2910      C2921   1.336       .  A
C2910      C2913   1.549       .  A
C2911      C2925   1.416       .  A
C2911      C2914   1.555       .  A
C2912      C2915   1.386       .  A
C2913      C2919   1.367       .  A
C2914      C2922   1.406       .  A
C2915      N2916   1.354       .  A
C2915      H2928   1.075       .  S
N2916      C2917   1.353       .  A
N2916      C3053   1.449       .  S
C2917      H2918   1.072       .  S
C2919      N2920   1.345       .  A
C2919      H2929   1.077       .  S
N2920      C2921   1.326       .  A
N2920      C3022   1.390       .  S
C2921      H2927   1.080       .  S
C2922      N2923   1.369       .  A
C2922      H2924   1.073       .  S
N2923      C2925   1.380       .  A
N2923      C3042   1.495       .  S
C2925      H2926   1.081       .  S
C2930      C2932   1.640       .  S
C2930      C2934   1.611       .  S
C2930      C2933   1.690       .  S
C2931      C2935   1.650       .  S
C2931      C2937   1.616       .  S
C2931      C2936   1.684       .  S
C2931      C3363   2.170       .  S
C2932      C2940   1.375       .  A
C2932      C2935   1.546       .  A
C2933      C2944   1.417       .  A
C2933      C2936   1.551       .  A
C2934      C2948   1.361       .  A
C2934      C2937   1.545       .  A
C2935      C2938   1.393       .  A
C2936      C2942   1.411       .  A
C2937      C2945   1.363       .  A
C2938      N2939   1.362       .  A
C2938      H2951   1.075       .  S
N2939      C2940   1.356       .  A
N2939      C3002   1.459       .  S
C2940      H2941   1.073       .  S
C2942      N2943   1.376       .  A
C2942      H2952   1.074       .  S
N2943      C2944   1.377       .  A
N2943      C2962   1.502       .  S
C2944      H2950   1.076       .  S
C2945      N2946   1.347       .  A
C2945      H2947   1.077       .  S
N2946      C2948   1.342       .  A
N2946      C2982   1.413       .  S
C2948      H2949   1.076       .  S
C2953      C2954   1.430       .  A
C2953      C3414   1.425       .  A
C2954      C2955   1.434       .  A
C2954     Br2966   1.885       .  S
C2955      C3412   1.410       .  A
C2955     Br2970   1.912       .  S
C2956      C3411   1.410       .  A
C2956      C2957   1.437       .  A
C2956      C2959   1.588       .  S
C2957      C2958   1.455       .  A
C2957     Br2965   1.902       .  S
C2958      C3409   1.423       .  A
C2959      C2960   1.430       .  A
C2959      C2964   1.442       .  A
C2960      C2961   1.445       .  A
C2960     Br3427   1.930       .  S
C2961      C2962   1.423       .  A
C2961     Br3423   1.922       .  S
C2962      C2963   1.420       .  A
C2963      C2964   1.446       .  A
C2963     Br2972   1.927       .  S
C2964     Br2968   1.937       .  S
Br2967     C3417   1.920       .  S
Br2971     C3416   1.931       .  S
C2973      C3430   1.403       .  A
C2973      C2978   1.387       .  A
C2974      C3429   1.407       .  A
C2974      C2975   1.397       .  A
C2974     Br2986   1.933       .  S
C2975      C2976   1.409       .  A
C2975     Br2990   1.932       .  S
C2976      C3433   1.404       .  A
C2976      C2979   1.452       .  S
C2977      C3432   1.409       .  A
C2977      C2978   1.382       .  A
C2977     Br2985   1.938       .  S
C2978     Br2989   1.916       .  S
C2979      C2980   1.411       .  A
C2979      C2984   1.408       .  A
C2980      C2981   1.391       .  A
C2980     Br2991   1.936       .  S
C2981      C2982   1.403       .  A
C2981     Br2987   1.928       .  S
C2982      C2983   1.401       .  A
C2983      C2984   1.391       .  A
C2983     Br2992   1.928       .  S
C2984     Br3444   1.934       .  S
Br2988     C3440   1.936       .  S
C2993      C2994   1.401       .  A
C2993      C2998   1.394       .  A
C2994      C3451   1.422       .  A
C2994     Br3006   1.922       .  S
C2995      C3450   1.403       .  A
C2995      C2996   1.404       .  A
C2995     Br3010   1.925       .  S
C2996      C3453   1.419       .  A
C2996      C2999   1.513       .  S
C2997      C3452   1.416       .  A
C2997      C2998   1.407       .  A
C2997     Br3005   1.926       .  S
C2999      C3000   1.415       .  A
C2999      C3460   1.423       .  A
C3000      C3001   1.414       .  A
C3000     Br3011   1.927       .  S
C3001      C3002   1.417       .  A
C3001     Br3007   1.932       .  S
C3002      C3003   1.416       .  A
C3003      C3460   1.414       .  A
C3003     Br3468   1.930       .  S
C3004      C3455   1.429       .  A
C3004      C3459   1.414       .  A
C3004     Br3008   1.924       .  S
Br3012     C3459   1.925       .  S
C3013      C3014   1.396       .  A
C3013      C3018   1.408       .  A
C3014      C3015   1.383       .  A
C3014     Br3026   1.905       .  S
C3015      C3016   1.407       .  A
C3015     Br3030   1.946       .  S
C3016      C3017   1.404       .  A
C3016      C3019   1.440       .  S
C3017      C3018   1.394       .  A
C3017     Br3025   1.938       .  S
C3018     Br3029   1.926       .  S
C3019      C3020   1.413       .  A
C3019      C3024   1.410       .  A
C3020      C3021   1.380       .  A
C3020     Br3031   1.934       .  S
C3021      C3022   1.395       .  A
C3021     Br3027   1.937       .  S
C3022      C3023   1.392       .  A
C3023      C3024   1.387       .  A
C3023     Br3032   1.926       .  S
C3024     Br3028   1.929       .  S
C3033      C3034   1.417       .  A
C3033      C3038   1.434       .  A
C3034      C3035   1.457       .  A
C3034     Br3046   1.895   1_565  S
C3035      C3036   1.439       .  A
C3035     Br3050   1.901       .  S
C3036      C3037   1.418       .  A
C3036      C3039   1.587       .  S
C3037      C3038   1.428       .  A
C3037     Br3045   1.932       .  S
C3038     Br3049   1.901       .  S
C3039      C3040   1.438       .  A
C3039      C3044   1.438       .  A
C3040      C3041   1.446       .  A
C3040     Br3051   1.931       .  S
C3041      C3042   1.421       .  A
C3041     Br3047   1.927       .  S
C3042      C3043   1.414       .  A
C3043      C3044   1.440       .  A
C3043     Br3052   1.924       .  S
C3044     Br3048   1.933       .  S
C3053      C3054   1.411       .  A
C3053      C3058   1.412       .  A
C3054      C3055   1.417       .  A
C3054     Br3066   1.930       .  S
C3055      C3056   1.424       .  A
C3055     Br3070   1.927       .  S
C3056      C3057   1.413       .  A
C3056      C3059   1.512       .  S
C3057      C3058   1.404       .  A
C3057     Br3065   1.931       .  S
C3058     Br3069   1.930       .  S
C3059      C3060   1.413       .  A
C3059      C3064   1.411       .  A
C3060      C3061   1.409       .  A
C3060     Br3071   1.933       .  S
C3061      C3062   1.418       .  A
C3061     Br3067   1.915       .  S
C3062      C3063   1.416       .  A
C3063      C3064   1.421       .  A
C3063     Br3072   1.922   1_565  S
C3064     Br3068   1.922       .  S
C3073      C3074   1.409       .  A
C3073      C3078   1.406       .  A
C3074      C3075   1.415       .  A
C3074     Br3086   1.926       .  S
C3075      C3076   1.422       .  A
C3075     Br3090   1.926       .  S
C3076      C3077   1.423       .  A
C3076      C3079   1.526       .  S
C3077      C3078   1.416       .  A
C3077     Br3085   1.921       .  S
C3078     Br3089   1.929       .  S
C3079      C3080   1.415       .  A
C3079      C3084   1.413       .  A
C3080      C3081   1.424       .  A
C3080     Br3091   1.932       .  S
C3081      C3082   1.425       .  A
C3081     Br3087   1.929       .  S
C3082      C3083   1.433       .  A
C3083      C3084   1.423       .  A
C3083     Br3092   1.913       .  S
C3084     Br3088   1.938       .  S
C3093      C3094   1.402       .  A
C3093      C3098   1.405       .  A
C3094      C3095   1.413       .  A
C3094     Br3106   1.935       .  S
C3095      C3096   1.432       .  A
C3095     Br3110   1.910       .  S
C3096      C3097   1.407       .  A
C3096      C3099   1.508       .  S
C3097      C3098   1.391       .  A
C3097     Br3105   1.899       .  S
C3098     Br3109   1.931       .  S
C3099      C3100   1.408       .  A
C3099      C3104   1.402       .  A
C3100      C3101   1.414       .  A
C3100     Br3111   1.918       .  S
C3101      C3102   1.427       .  A
C3101     Br3107   1.923   1_655  S
C3102      C3103   1.445       .  A
C3103      C3104   1.425       .  A
C3103     Br3112   1.933       .  S
C3104     Br3108   1.945       .  S
C3113      C3114   1.421       .  A
C3113      C3118   1.410       .  A
C3114      C3115   1.433       .  A
C3114     Br3126   1.926       .  S
C3115      C3116   1.424       .  A
C3115     Br3130   1.922       .  S
C3116      C3117   1.420       .  A
C3116      C3119   1.553       .  S
C3117      C3118   1.417       .  A
C3117     Br3125   1.894       .  S
C3118     Br3129   1.933       .  S
C3119      C3120   1.427       .  A
C3119      C3124   1.418       .  A
C3120      C3121   1.437       .  A
C3120     Br3131   1.932       .  S
C3121      C3122   1.426       .  A
C3122      C3123   1.438       .  A
C3123      C3124   1.425       .  A
C3123     Br3132   1.924       .  S
C3124     Br3128   1.942       .  S
C3133      C3134   1.424       .  A
C3133      C3138   1.419       .  A
C3134      C3135   1.415       .  A
C3134     Br3146   1.928   1_655  S
C3135      C3136   1.414       .  A
C3135     Br3150   1.939       .  S
C3136      C3137   1.417       .  A
C3136      C3139   1.513       .  S
C3137      C3138   1.417       .  A
C3137     Br3145   1.933       .  S
C3139      C3596   1.421       .  A
C3139      C3144   1.421       .  A
C3140      C3595   1.417       .  A
C3140      C3141   1.404       .  A
C3140     Br3151   1.919       .  S
C3141      C3598   1.400       .  A
C3141     Br3147   1.931       .  S
C3142      C3597   1.401       .  A
C3142      C3143   1.409       .  A
C3143      C3144   1.412       .  A
C3143     Br3152   1.927       .  S
C3144     Br3148   1.930       .  S
C3153      C3610   1.413       .  A
C3153      C3158   1.413       .  A
C3153      N3209   1.469       .  S
C3154      C3609   1.414       .  A
C3154      C3611   1.417       .  A
C3154     Br3166   1.925       .  S
C3155      C3610   1.430       .  A
C3155      C3156   1.422       .  A
C3155     Br3170   1.923       .  S
C3156      C3157   1.415       .  A
C3156      C3159   1.541       .  S
C3157      C3158   1.427       .  A
C3157     Br3165   1.919       .  S
C3158     Br3169   1.926       .  S
C3159      C3160   1.399       .  A
C3159      C3164   1.401       .  A
C3160      C3161   1.432       .  A
C3160     Br3171   1.914       .  S
C3161      C3162   1.436       .  A
C3161     Br3167   1.899       .  S
C3162      C3163   1.449       .  A
C3163      C3164   1.434       .  A
C3163     Br3628   1.880       .  S
C3164     Br3624   1.929       .  S
Br3168     C3620   1.901   1_554  S
Br3172     C3619   1.882   1_554  S
C3173      C3174   1.426       .  A
C3173      C3178   1.413       .  A
C3174      C3175   1.393       .  A
C3174     Br3186   1.934       .  S
C3175      C3176   1.404       .  A
C3175     Br3190   1.944       .  S
C3176      C3177   1.416       .  A
C3176      C3179   1.487       .  S
C3177      C3178   1.413       .  A
C3177     Br3185   1.935       .  S
C3179      C3180   1.416       .  A
C3179      C3640   1.413       .  A
C3180      C3181   1.408       .  A
C3180     Br3191   1.924       .  S
C3181      C3182   1.410       .  A
C3181     Br3187   1.928       .  S
C3182      C3639   1.403       .  A
C3182      N3206   1.431       .  S
C3183      C3638   1.408       .  A
C3183      C3184   1.385       .  A
C3183     Br3192   1.928       .  S
C3184      C3635   1.406       .  A
C3184     Br3188   1.913       .  S
C3193      C3195   1.646       .  S
C3193      C3197   1.639       .  S
C3193      C3196   1.641       .  S
C3193      C3217   2.159       .  S
C3194      C3198   1.639       .  S
C3194      C3200   1.663       .  S
C3194      C3199   1.624       .  S
C3194      C3216   2.175       .  S
C3195      C3203   1.378       .  A
C3196      C3207   1.372       .  A
C3197      C3211   1.380       .  A
C3198      C3201   1.373       .  A
C3199      C3205   1.358       .  A
C3200      C3208   1.389       .  A
C3201      N3202   1.356       .  A
C3201      H3214   1.081       .  S
N3202      C3598   1.435       .  S
C3203      H3204   1.079       .  S
C3205      H3215   1.073       .  S
N3206      C3207   1.365       .  A
C3207      H3213   1.076       .  S
C3208      H3210   1.082       .  S
N3209      C3211   1.360       .  A
C3211      H3212   1.072       .  S
C3216      C3218   1.651       .  S
C3216      C3220   1.629       .  S
C3216      C3219   1.660       .  S
C3217      C3221   1.641       .  S
C3217      C3223   1.640       .  S
C3217      C3222   1.642       .  S
C3218      C3226   1.380       .  A
C3218      C3221   1.549       .  A
C3219      C3230   1.391       .  A
C3219      C3222   1.550       .  A
C3220      C3234   1.366       .  A
C3220      C3223   1.544       .  A
C3221      C3224   1.378       .  A
C3222      C3228   1.379       .  A
C3223      C3231   1.379       .  A
C3224      N3225   1.360       .  A
C3224      H3237   1.081       .  S
N3225      C3226   1.363       .  A
N3225      C3529   1.448       .  S
C3226      H3227   1.075       .  S
C3228      N3229   1.357       .  A
C3228      H3238   1.073       .  S
N3229      C3230   1.364       .  A
N3229      C3569   1.455       .  S
C3230      H3236   1.076       .  S
C3231      N3232   1.362       .  A
C3231      H3233   1.081       .  S
N3232      C3234   1.357       .  A
N3232      C3549   1.438       .  S
C3234      H3235   1.082       .  S
O3239     Zr3251   2.470   1_565  S
O3239      C3241   1.281       .  A
O3240     Zr3277   2.406       .  S
O3240      C3241   1.276       .  A
C3241      C3518   1.504       .  S
O3242     Zr3254   2.375       .  S
O3242      C3244   1.274       .  A
O3243     Zr3278   2.435       .  S
C3244      C3469   1.425       .  S
O3245     Zr3254   2.410       .  S
O3245      C3247   1.279       .  A
O3246     Zr3277   2.583   1_545  S
C3247      C3629   1.530       .  S
O3248     Zr3251   2.472       .  S
O3249     Zr3278   2.504       .  S
O3249      C3250   1.260       .  A
O3252      H3295   0.989       .  S
O3253      H3294   0.980       .  S
O3253      H3298   0.973       .  S
Zr3254     O3255   2.440       .  S
Zr3254     O3256   2.441       .  S
Zr3254     O3258   2.267       .  S
Zr3254     O3257   2.407       .  S
Zr3254     O3282   2.348       .  S
Zr3254     O3284   2.435       .  S
O3255      H3296   0.991       .  S
O3255      H3299   0.988       .  S
O3256      H3289   0.990       .  S
O3258      H3285   0.919       .  S
O3259     Zr3271   2.495       .  S
O3259      C3261   1.293       .  A
O3260      C3261   1.350   1_545  A
C3261      C3489   1.570       .  S
O3262     Zr3274   2.369       .  S
O3263     Zr3277   2.344       .  S
O3265     Zr3274   2.536       .  S
O3265      C3267   1.301       .  A
O3266     Zr3278   2.394   1_655  S
O3266      C3267   1.272       .  A
C3267      C3589   1.510       .  S
O3268     Zr3271   2.419       .  S
O3268      C3270   1.264       .  A
O3269      C3270   1.333       .  A
C3270      C3618   1.554       .  S
Zr3271     O3272   2.455       .  S
Zr3271     O3273   2.370       .  S
Zr3271     O3279   2.434   1_565  S
Zr3271     O3283   2.454       .  S
Zr3271     O3281   2.340       .  S
Zr3271     O3280   2.200       .  S
O3272      H3292   0.983       .  S
O3272      H3297   0.987       .  S
O3273      H3293   0.986       .  S
O3275      H3291   0.989       .  S
O3276      H3290   0.986       .  S
O3279      H3287   0.954       .  S
O3282      H3286   0.946       .  S
O3283      H3288   0.963       .  S
O3301     Zr3313   2.466       .  S
O3301      C3303   1.278       .  A
O3302     Zr3339   2.521       .  S
O3302      C3303   1.293       .  A
C3303      C3449   1.520       .  S
O3304     Zr3316   2.465       .  S
O3304      C3306   1.289       .  A
O3305     Zr3340   2.718       .  S
C3306      C3409   1.606       .  S
O3307     Zr3316   2.476       .  S
O3307      C3309   1.277       .  A
O3308      C3309   1.293       .  A
C3309      C3578   1.536       .  S
O3311      C3312   1.248       .  A
O3314      H3357   0.987   1_554  S
O3315      H3356   0.980       .  S
O3315      H3360   0.986   1_655  S
Zr3316     O3317   2.492       .  S
Zr3316     O3318   2.423       .  S
Zr3316     O3320   2.321       .  S
Zr3316     O3319   2.388       .  S
Zr3316     O3344   2.309       .  S
Zr3316     O3346   2.333       .  S
O3317      H3358   0.990       .  S
O3317      H3361   0.989       .  S
O3318      H3351   0.984       .  S
O3320      H3347   0.904       .  S
O3321     Zr3333   2.396       .  S
O3321      C3323   1.273       .  A
O3322      C3323   1.282       .  A
C3323      C3429   1.443       .  S
O3324     Zr3336   2.321   1_455  S
O3325     Zr3339   2.376   1_545  S
O3327     Zr3336   2.562       .  S
O3327      C3329   1.301       .  A
O3328     Zr3340   2.435       .  S
O3328      C3329   1.277       .  A
C3329      C3538   1.542       .  S
O3330     Zr3333   2.494       .  S
O3330      C3332   1.289       .  A
O3331      C3332   1.319       .  A
C3332      C3558   1.541       .  S
Zr3333     O3334   2.478       .  S
Zr3333     O3335   2.437       .  S
Zr3333     O3341   2.462       .  S
Zr3333     O3342   2.350       .  S
Zr3333     O3345   2.391       .  S
Zr3333     O3343   2.287       .  S
O3334      H3354   0.985       .  S
O3334      H3359   0.989       .  S
O3335      H3355   0.989       .  S
O3337      H3353   0.983       .  S
O3338      H3352   0.980       .  S
O3341      H3349   0.964       .  S
O3344      H3348   0.927       .  S
O3345      H3350   0.939       .  S
C3363      C3365   1.632       .  S
C3363      C3367   1.683       .  S
C3363      C3366   1.596       .  S
C3364      C3368   1.627       .  S
C3364      C3370   1.662       .  S
C3364      C3369   1.607       .  S
C3364      C3386   2.146       .  S
C3365      C3373   1.374       .  A
C3365      C3368   1.547       .  A
C3366      C3377   1.348       .  A
C3366      C3369   1.547       .  A
C3367      C3381   1.407       .  A
C3367      C3370   1.557       .  A
C3368      C3371   1.373       .  A
C3369      C3375   1.354       .  A
C3370      C3378   1.392       .  A
C3371      N3372   1.348       .  A
C3371      H3384   1.074       .  S
N3372      C3373   1.350       .  A
N3372      C3509   1.430       .  S
C3373      H3374   1.074       .  S
C3375      N3376   1.348       .  A
C3375      H3385   1.083       .  S
N3376      C3377   1.344       .  A
N3376      C3478   1.393       .  S
C3377      H3383   1.083       .  S
C3378      N3379   1.365       .  A
C3378      H3380   1.075       .  S
N3379      C3381   1.372       .  A
N3379      C3498   1.479       .  S
C3381      H3382   1.076       .  S
C3386      C3388   1.620   1_556  S
C3386      C3390   1.587   1_556  S
C3386      C3389   1.687   1_556  S
C3387      C3391   1.626       .  S
C3387      C3393   1.627       .  S
C3387      C3392   1.708       .  S
C3388      C3396   1.366       .  A
C3388      C3391   1.533       .  A
C3389      C3400   1.420   1_554  A
C3389      C3392   1.556       .  A
C3390      C3404   1.344   1_554  A
C3390      C3393   1.551       .  A
C3391      C3394   1.371       .  A
C3392      C3398   1.427       .  A
C3393      C3401   1.359       .  A
C3394      N3395   1.351       .  A
C3394      H3407   1.069       .  S
N3395      C3396   1.352       .  A
N3395      C3458   1.426       .  S
C3396      H3397   1.076   1_554  S
C3398      N3399   1.382       .  A
C3398      H3408   1.075       .  S
N3399      C3400   1.380   1_554  A
N3399      C3418   1.513       .  S
C3400      H3406   1.082       .  S
C3401      N3402   1.352       .  A
C3401      H3403   1.082       .  S
N3402      C3404   1.337   1_554  A
N3402      C3438   1.391       .  S
C3404      H3405   1.083       .  S
C3409      C3410   1.431       .  A
C3410      C3411   1.433       .  A
C3410     Br3422   1.876       .  S
C3411     Br3426   1.924       .  S
C3412      C3413   1.432       .  A
C3412      C3415   1.590       .  S
C3413      C3414   1.454       .  A
C3413     Br3421   1.903   1_554  S
C3415      C3416   1.429       .  A
C3415      C3420   1.437       .  A
C3416      C3417   1.448       .  A
C3417      C3418   1.428       .  A
C3418      C3419   1.428       .  A
C3419      C3420   1.451       .  A
C3419     Br3428   1.926   1_554  S
C3420     Br3424   1.935   1_554  S
C3429      C3434   1.401       .  A
C3430      C3431   1.382       .  A
C3430     Br3442   1.918   1_554  S
C3431      C3432   1.403       .  A
C3431     Br3446   1.943   1_554  S
C3432      C3435   1.425       .  S
C3433      C3434   1.386       .  A
C3433     Br3441   1.936       .  S
C3434     Br3445   1.922       .  S
C3435      C3436   1.405       .  A
C3435      C3440   1.410       .  A
C3436      C3437   1.376       .  A
C3436     Br3447   1.943   1_554  S
C3437      C3438   1.405       .  A
C3437     Br3443   1.932   1_554  S
C3438      C3439   1.392       .  A
C3439      C3440   1.383       .  A
C3439     Br3448   1.927       .  S
C3449      C3450   1.402       .  A
C3449      C3454   1.415       .  A
C3450     Br3462   1.877       .  S
C3451      C3452   1.424       .  A
C3451     Br3466   1.918       .  S
C3452      C3455   1.519       .  S
C3453      C3454   1.429       .  A
C3453     Br3461   1.939       .  S
C3455      C3456   1.426       .  A
C3456      C3457   1.391       .  A
C3456     Br3467   1.906   1_554  S
C3457      C3458   1.388       .  A
C3457     Br3463   1.937       .  S
C3458      C3459   1.400       .  A
C3460     Br3464   1.940       .  S
C3469      C3470   1.394       .  A
C3469      C3474   1.410       .  A
C3470      C3471   1.381       .  A
C3470     Br3482   1.917       .  S
C3471      C3472   1.409       .  A
C3471     Br3486   1.942       .  S
C3472      C3473   1.396       .  A
C3472      C3475   1.427       .  S
C3473      C3474   1.386       .  A
C3473     Br3481   1.940       .  S
C3474     Br3485   1.919       .  S
C3475      C3476   1.399       .  A
C3475      C3480   1.409       .  A
C3476      C3477   1.369       .  A
C3476     Br3487   1.929       .  S
C3477      C3478   1.406       .  A
C3477     Br3483   1.940       .  S
C3478      C3479   1.395       .  A
C3479      C3480   1.389       .  A
C3479     Br3488   1.926       .  S
C3480     Br3484   1.930       .  S
C3489      C3490   1.414       .  A
C3489      C3494   1.429       .  A
C3490      C3491   1.443       .  A
C3490     Br3502   1.894   1_565  S
C3491      C3492   1.423       .  A
C3491     Br3506   1.899       .  S
C3492      C3493   1.408       .  A
C3492      C3495   1.553       .  S
C3493      C3494   1.416       .  A
C3493     Br3501   1.916       .  S
C3494     Br3505   1.919       .  S
C3495      C3496   1.426       .  A
C3495      C3500   1.424       .  A
C3496      C3497   1.432       .  A
C3496     Br3507   1.929       .  S
C3497      C3498   1.416       .  A
C3497     Br3503   1.927       .  S
C3498      C3499   1.418       .  A
C3499      C3500   1.431       .  A
C3499     Br3508   1.923       .  S
C3500     Br3504   1.930       .  S
C3509      C3510   1.403       .  A
C3509      C3514   1.390       .  A
C3510      C3511   1.412       .  A
C3510     Br3522   1.929       .  S
C3511      C3512   1.422       .  A
C3511     Br3526   1.913       .  S
C3512      C3513   1.416       .  A
C3512      C3515   1.518       .  S
C3513      C3514   1.402       .  A
C3513     Br3521   1.884       .  S
C3514     Br3525   1.931       .  S
C3515      C3516   1.421       .  A
C3515      C3520   1.424       .  A
C3516      C3517   1.394       .  A
C3516     Br3527   1.915       .  S
C3517      C3518   1.402       .  A
C3517     Br3523   1.930       .  S
C3518      C3519   1.417       .  A
C3519      C3520   1.421       .  A
C3519     Br3528   1.920       .  S
C3520     Br3524   1.932       .  S
C3529      C3530   1.409       .  A
C3529      C3534   1.404       .  A
C3530      C3531   1.415       .  A
C3530     Br3542   1.930       .  S
C3531      C3532   1.425       .  A
C3531     Br3546   1.935       .  S
C3532      C3533   1.423       .  A
C3532      C3535   1.526       .  S
C3533      C3534   1.415       .  A
C3533     Br3541   1.913       .  S
C3534     Br3545   1.932       .  S
C3535      C3536   1.418       .  A
C3535      C3540   1.407       .  A
C3536      C3537   1.430       .  A
C3536     Br3547   1.932       .  S
C3537      C3538   1.427       .  A
C3537     Br3543   1.919       .  S
C3538      C3539   1.423       .  A
C3539      C3540   1.415       .  A
C3539     Br3548   1.900       .  S
C3540     Br3544   1.931       .  S
C3549      C3550   1.406       .  A
C3549      C3554   1.406       .  A
C3550      C3551   1.401       .  A
C3550     Br3562   1.927       .  S
C3551      C3552   1.414       .  A
C3551     Br3566   1.911       .  S
C3552      C3553   1.414       .  A
C3552      C3555   1.510       .  S
C3553      C3554   1.407       .  A
C3553     Br3561   1.906       .  S
C3554     Br3565   1.930       .  S
C3555      C3556   1.399       .  A
C3555      C3560   1.396       .  A
C3556      C3557   1.415       .  A
C3556     Br3567   1.890       .  S
C3557      C3558   1.420       .  A
C3557     Br3563   1.897   1_655  S
C3558      C3559   1.438       .  A
C3559      C3560   1.414       .  A
C3559     Br3568   1.900       .  S
C3560     Br3564   1.940       .  S
C3569      C3570   1.405       .  A
C3569      C3574   1.415       .  A
C3570      C3571   1.412       .  A
C3570     Br3582   1.926       .  S
C3571      C3572   1.422       .  A
C3571     Br3586   1.929       .  S
C3572      C3573   1.421       .  A
C3572      C3575   1.522       .  S
C3573      C3574   1.417       .  A
C3573     Br3581   1.927       .  S
C3574     Br3585   1.927       .  S
C3575      C3576   1.419       .  A
C3575      C3580   1.413       .  A
C3576      C3577   1.421       .  A
C3576     Br3587   1.925       .  S
C3577      C3578   1.426       .  A
C3578      C3579   1.429       .  A
C3579      C3580   1.409       .  A
C3579     Br3588   1.923       .  S
C3580     Br3584   1.943       .  S
C3589      C3590   1.428       .  A
C3589      C3594   1.418       .  A
C3590      C3591   1.414       .  A
C3590     Br3602   1.936   1_655  S
C3591      C3592   1.413       .  A
C3591     Br3606   1.942       .  S
C3592      C3593   1.412       .  A
C3592      C3595   1.502       .  S
C3593      C3594   1.411       .  A
C3593     Br3601   1.933       .  S
C3595      C3600   1.421       .  A
C3596      C3597   1.408       .  A
C3596     Br3607   1.922       .  S
C3597     Br3603   1.928       .  S
C3598      C3599   1.409       .  A
C3599      C3600   1.408       .  A
C3599     Br3608   1.930       .  S
C3600     Br3604   1.934       .  S
C3609      C3614   1.406       .  A
C3610     Br3622   1.923       .  S
C3611      C3612   1.414       .  A
C3611     Br3626   1.931       .  S
C3612      C3613   1.414       .  A
C3612      C3615   1.505       .  S
C3613      C3614   1.409       .  A
C3613     Br3621   1.922       .  S
C3614     Br3625   1.927       .  S
C3615      C3616   1.408       .  A
C3615      C3620   1.394       .  A
C3616      C3617   1.428       .  A
C3616     Br3627   1.935       .  S
C3617      C3618   1.441       .  A
C3617     Br3623   1.933       .  S
C3618      C3619   1.406       .  A
C3619      C3620   1.400       .  A
C3629      C3630   1.433       .  A
C3629      C3634   1.409       .  A
C3630      C3631   1.403       .  A
C3630     Br3642   1.937       .  S
C3631      C3632   1.402       .  A
C3631     Br3646   1.936       .  S
C3632      C3633   1.404       .  A
C3632      C3635   1.481       .  S
C3633      C3634   1.407       .  A
C3633     Br3641   1.940       .  S
C3635      C3636   1.409       .  A
C3636      C3637   1.399       .  A
C3636     Br3647   1.900       .  S
C3637      C3638   1.402       .  A
C3637     Br3643   1.928       .  S
C3639      C3640   1.382       .  A
C3639     Br3648   1.937       .  S
C3640     Br3644   1.917       .  S
