geometry optimzed in LAMMPS
_audit_creation_date              2020-11-30 
_audit_creation_method            'lammps2cif' 
_symmetry_space_group_name_H-M    'P1' 
_symmetry_Int_Tables_number       1 
_symmetry_cell_setting            triclinic 
loop_ 
_symmetry_equiv_pos_as_xyz 
  x,y,z 
_cell_length_a                    54.44845295 
_cell_length_b                    54.6858709552533 
_cell_length_c                    62.28022113750363 
_cell_angle_alpha                 89.80978956990113 
_cell_angle_beta                  90.0518135887835 
_cell_angle_gamma                 121.4669366907453 
loop_ 
_atom_site_label 
_atom_site_type_symbol 
_atom_site_fract_x 
_atom_site_fract_y 
_atom_site_fract_z 
_atom_site_charge 
O1          O  0.56338647  0.01767506  0.98694714    -0.77700
C2          C  0.55776915  0.06970522  0.03864109     0.83300
O3          O  0.48648412  0.95272338  0.03503324    -0.78800
O4          O  0.46327319  0.02914379  0.03141377    -0.80300
O5          O  0.49617098  0.04244033  0.96045006    -0.80100
O6          O  0.53681620  0.01330959  0.95843935    -0.78700
Zn7        Zn  0.53999629  0.01508550  0.01302474     1.55700
O8          O  0.49964358  0.06801577  0.98918248    -0.80100
Cd9        Cd  0.50075343  0.00974177  0.97239673     1.59700
Cd10       Cd  0.47150361  0.97414326  0.01683608     1.59600
O11         O  0.46482504  0.97224251  0.96267195    -0.80100
O12         O  0.50376447  0.01071609  0.00433228    -1.90600
Cd13       Cd  0.50093083  0.04387696  0.01439021     1.59900
O14         O  0.44472744  0.94738210  0.99280111    -0.80100
O15         O  0.53541120  0.07042985  0.03387755    -0.78700
C16         C  0.51211037  0.95869799  0.03850632     0.83800
C17         C  0.55966411  0.01632236  0.96665109     0.83500
O18         O  0.56210150  0.05042772  0.03151343    -0.77700
C19         C  0.49666718  0.06381716  0.96898951     0.84300
O20         O  0.53386465  0.98122092  0.03080054    -0.77800
C21         C  0.44499619  0.95037170  0.97249400     0.84400
C22         C  0.44437177  0.00472166  0.03892545     0.84700
O23         O  0.44574826  0.98244471  0.03585575    -0.80200
O24         O  0.57271333  0.56909388  0.01806745    -0.77700
C25         C  0.57136751  0.50985345  0.96843965     0.83300
O26         O  0.49472143  0.54843576  0.97121566    -0.78800
O27         O  0.47684486  0.45298099  0.96999477    -0.80300
O28         O  0.50920534  0.47079462  0.04463050    -0.80100
O29         O  0.54817061  0.54397868  0.04693268    -0.78700
Zn30       Zn  0.55039293  0.54447732  0.99241792     1.55700
O31         O  0.50585129  0.44702816  0.01457321    -0.80100
Cd32       Cd  0.51266751  0.50832699  0.03357987     1.59700
Cd33       Cd  0.48094875  0.51240812  0.99035160     1.59600
O34         O  0.47581197  0.50655219  0.04454613    -0.80100
O35         O  0.51451599  0.51058699  0.00147343    -1.90600
Cd36       Cd  0.51210659  0.47531039  0.98989583     1.59900
O37         O  0.45579491  0.51217873  0.01519739    -0.80100
O38         O  0.54866539  0.48571344  0.97239265    -0.78700
C39         C  0.52000699  0.56785882  0.96542883     0.83800
C40         C  0.56945243  0.56619001  0.03840083     0.83500
O41         O  0.57488256  0.53325870  0.97569994    -0.77700
C42         C  0.50522565  0.44849181  0.03497258     0.84300
O43         O  0.54240875  0.56847598  0.97220552    -0.77800
C44         C  0.45585037  0.50833462  0.03538086     0.84400
C45         C  0.45523943  0.45522163  0.96562143     0.84700
O46         O  0.45366320  0.47632100  0.97241253    -0.80200
O47         O  0.43198278  0.99355908  0.48690099    -0.77700
C48         C  0.42841044  0.93751345  0.53671878     0.83300
O49         O  0.50925160  0.05169507  0.53960165    -0.78800
O50         O  0.51928876  0.96837543  0.53815162    -0.80300
O51         O  0.49860440  0.96493966  0.46279913    -0.80100
O52         O  0.45858141  0.99455352  0.45946326    -0.78700
Zn53       Zn  0.45415672  0.99508181  0.51363687     1.55700
O54         O  0.49360144  0.93821282  0.49124883    -0.80100
Cd55       Cd  0.49341340  0.99721593  0.47480160     1.59700
Cd56       Cd  0.52274755  0.02908772  0.52079536     1.59600
O57         O  0.52955211  0.03517587  0.46649383    -0.80100
O58         O  0.48903114  0.99529336  0.50661740    -1.90600
Cd59       Cd  0.48706455  0.95933569  0.51628292     1.59900
O60         O  0.55115353  0.05626394  0.49739860    -0.80100
O61         O  0.44815753  0.93284256  0.53130239    -0.78700
C62         C  0.48471467  0.04936117  0.54125546     0.83800
C63         C  0.43613909  0.99330894  0.46676830     0.83500
O64         O  0.42869969  0.96014345  0.53133610    -0.77700
C65         C  0.49841785  0.94359571  0.47123668     0.84300
O66         O  0.46258120  0.02962648  0.53155346    -0.77800
C67         C  0.55028110  0.05537911  0.47692891     0.84400
C68         C  0.54112951  0.99144608  0.54497750     0.84700
O69         O  0.54542296  0.01596450  0.53970170    -0.80200
O70         O  0.01112524  0.45495558  0.01688863    -0.77700
C71         C  0.95043752  0.45088296  0.96933534     0.83300
O72         O  0.07034546  0.52984176  0.96651492    -0.78800
O73         O  0.98858627  0.54487080  0.96639412    -0.80300
O74         O  0.98427753  0.52326167  0.04192756    -0.80100
O75         O  0.01183041  0.48042940  0.04499623    -0.78700
Zn76       Zn  0.00961819  0.47604499  0.99057367     1.55700
O77         O  0.95640161  0.51766576  0.01405466    -0.80100
Cd78       Cd  0.01547514  0.51618017  0.03004740     1.59700
Cd79       Cd  0.04811120  0.54467182  0.98443387     1.59600
O80         O  0.05442721  0.55145633  0.03879978    -0.80100
O81         O  0.01258619  0.51187603  0.99810993    -1.90600
Cd82       Cd  0.97714663  0.51148977  0.98825878     1.59900
O83         O  0.07570238  0.57295698  0.00789643    -0.80100
O84         O  0.94838508  0.47257309  0.97356869    -0.78700
C85         C  0.06425413  0.50428092  0.96289513     0.83800
C86         C  0.01130911  0.45870331  0.03708722     0.83500
O87         O  0.97260673  0.45021148  0.97487917    -0.77700
C88         C  0.96249201  0.52284335  0.03396774     0.84300
O89         O  0.04180573  0.48285354  0.97094479    -0.77800
C90         C  0.07504752  0.57195212  0.02838659     0.84400
C91         C  0.01269782  0.56511618  0.95912653     0.84700
O92         O  0.03654523  0.56747831  0.96431996    -0.80200
O93         O  0.95615044  0.42806820  0.52487576    -0.77700
C94         C  0.98973334  0.43368108  0.46004407     0.83300
O95         O  0.04979049  0.51061314  0.52851107    -0.78800
O96         O  0.02934277  0.52641686  0.45443005    -0.80300
O97         O  0.93548815  0.49337316  0.48488163    -0.80100
O98         O  0.93018017  0.44862050  0.52587456    -0.78700
Zn99       Zn  0.99084070  0.45320432  0.50621314     1.55700
O100        O  0.95881561  0.49455962  0.45498539    -0.80100
Cd101      Cd  0.95712683  0.48668899  0.50936017     1.59700
Cd102      Cd  0.02753640  0.52301407  0.50861353     1.59600
O103        O  0.96898626  0.51997350  0.53063828    -0.80100
O104        O  0.99200888  0.48795228  0.49760328    -1.90600
Cd105      Cd  0.99231741  0.49049314  0.46560736     1.59900
O106        O  0.01643490  0.54774719  0.52665425    -0.80100
O107        O  0.99026891  0.45524308  0.45170476    -0.78700
C108        C  0.04622375  0.48601906  0.53232043     0.83800
C109        C  0.93406832  0.42835188  0.53126539     0.83500
O110        O  0.98980095  0.43031232  0.48030704    -0.77700
C111        C  0.93918991  0.49633876  0.46460857     0.84300
O112        O  0.02553430  0.46312846  0.52418991    -0.77800
C113        C  0.99276481  0.54296911  0.53470568     0.84400
C114        C  0.05179145  0.54690508  0.46321698     0.84700
O115        O  0.05471931  0.54842227  0.48361321    -0.80200
N116        N  0.98837653  0.27757751  0.37443083    -0.02700
C117        C  0.01125720  0.27555068  0.36841908    -0.00100
C118        C  0.00187453  0.24861868  0.36021501    -0.23000
C119        C  0.97228829  0.23350985  0.36128227    -0.23200
C120        C  0.96448459  0.25172197  0.37002218    -0.00200
H121        H  0.01511669  0.24088901  0.35394733     0.13600
H122        H  0.95797040  0.21177278  0.35589644     0.13600
C123        C  0.54854611  0.83034596  0.37091921     0.81000
N124        N  0.56435790  0.81811050  0.37514431    -0.77300
C125        C  0.57299522  0.80772401  0.35887547     0.83400
N126        N  0.56488146  0.80884341  0.33846085    -0.77200
C127        C  0.54978568  0.82158627  0.33401418     0.83500
N128        N  0.54204842  0.83269995  0.35020419    -0.79000
C129        C  0.70699483  0.16930588  0.36992549     0.81000
N130        N  0.73436869  0.17959246  0.37687806    -0.77300
C131        C  0.75671682  0.19235961  0.36288304     0.83400
N132        N  0.75159467  0.19415283  0.34183214    -0.77200
C133        C  0.72431023  0.18317574  0.33460843     0.83500
N134        N  0.70203056  0.17102696  0.34872845    -0.79000
N135        N  0.70998161  0.71344959  0.37163293    -0.02700
C136        C  0.71186355  0.73825623  0.36542665    -0.00100
C137        C  0.73817065  0.75628422  0.35570329    -0.23000
C138        C  0.75303307  0.74224932  0.35601824    -0.23200
C139        C  0.73529177  0.71600052  0.36580661    -0.00200
H140        H  0.74564538  0.77723738  0.34898266     0.13600
H141        H  0.77425964  0.75013188  0.34953948     0.13600
C142        C  0.83253777  0.55851484  0.36841699     0.81000
N143        N  0.81754710  0.57049941  0.37544986    -0.77300
C144        C  0.80419113  0.57847873  0.36110593     0.83400
N145        N  0.80630804  0.57490302  0.33978610    -0.77200
C146        C  0.82200286  0.56381346  0.33261641     0.83500
N147        N  0.83490818  0.55549023  0.34702566    -0.79000
C148        C  0.18187197  0.70734116  0.36103583     0.81000
N149        N  0.18833602  0.70422490  0.34046513    -0.77300
C150        C  0.20307361  0.72761457  0.32745202     0.83400
N151        N  0.21145354  0.75393943  0.33534931    -0.77200
C152        C  0.20494303  0.75718389  0.35572977     0.83500
N153        N  0.18975627  0.73380430  0.36848711    -0.79000
N154        N  0.28513230  0.98645567  0.36863080    -0.02700
C155        C  0.28409982  0.00956670  0.36177291    -0.00100
C156        C  0.25870164  0.00069334  0.35084920    -0.23000
C157        C  0.24349452  0.97124143  0.35104360    -0.23200
C158        C  0.26017409  0.96295260  0.36190031    -0.00200
H159        H  0.25210145  0.01420883  0.34332532     0.13600
H160        H  0.22278850  0.95735591  0.34363833     0.13600
C161        C  0.27261689  0.44676283  0.36076175     0.81000
N162        N  0.27913886  0.45171585  0.33950135    -0.77300
C163        C  0.25798012  0.44135594  0.32454188     0.83400
N164        N  0.23013019  0.42494778  0.33075632    -0.77200
C165        C  0.22320983  0.41864933  0.35177656     0.83500
N166        N  0.24448092  0.43012706  0.36678390    -0.79000
C167        C  0.46021194  0.26918960  0.35937713     0.81000
N168        N  0.46874545  0.27542412  0.33853012    -0.77300
C169        C  0.45897000  0.25413062  0.32371563     0.83400
N170        N  0.44112989  0.22659844  0.33011781    -0.77200
C171        C  0.43188765  0.22013284  0.35074368     0.83500
N172        N  0.44137403  0.24159118  0.36533512    -0.79000
C173        C  0.56095397  0.84399445  0.13865042     0.81000
N174        N  0.55575599  0.84500008  0.15989760    -0.77300
C175        C  0.56176881  0.83039054  0.17456789     0.83400
N176        N  0.57337132  0.81506362  0.16767792    -0.77200
C177        C  0.57986954  0.81495653  0.14669820     0.83500
N178        N  0.57355395  0.82937558  0.13210484    -0.79000
C179        C  0.72147180  0.19031997  0.13829787     0.81000
N180        N  0.74914888  0.19888688  0.13319665    -0.77300
C181        C  0.76966688  0.20844651  0.14870606     0.83400
N182        N  0.76227411  0.20958305  0.16927512    -0.77200
C183        C  0.73488243  0.20120214  0.17470746     0.83500
N184        N  0.71455727  0.19162119  0.15907787    -0.79000
N185        N  0.71579712  0.71998763  0.13683506    -0.02700
C186        C  0.71525459  0.74246509  0.14566538    -0.00100
C187        C  0.73939255  0.75870632  0.15820752    -0.23000
C188        C  0.75535669  0.74590391  0.15720234    -0.23200
C189        C  0.74062543  0.72232855  0.14395111    -0.00200
H190        H  0.74476508  0.77776285  0.16712373     0.13600
H191        H  0.77556803  0.75302367  0.16524301     0.13600
C192        C  0.85531253  0.57883411  0.13706925     0.81000
N193        N  0.84472042  0.59583853  0.13188220    -0.77300
C194        C  0.83217977  0.60342740  0.14724227     0.83400
N195        N  0.83035273  0.59390909  0.16763587    -0.77200
C196        C  0.84101620  0.57720255  0.17299981     0.83500
N197        N  0.85352077  0.56966608  0.15767071    -0.79000
C198        C  0.20635429  0.72809149  0.13078954     0.81000
N199        N  0.21455426  0.75480798  0.12363844    -0.77300
C200        C  0.22596531  0.77740522  0.13728830     0.83400
N201        N  0.22873014  0.77313118  0.15839367    -0.77200
C202        C  0.21968948  0.74642237  0.16604452     0.83500
N203        N  0.20884469  0.72403205  0.15208680    -0.79000
N204        N  0.26943101  0.99201395  0.10418118    -0.02700
C205        C  0.26539442  0.01439847  0.10624892    -0.00100
C206        C  0.23695230  0.00445899  0.11116100    -0.23000
C207        C  0.22307096  0.97495615  0.11218508    -0.23200
C208        C  0.24350617  0.96782942  0.10785001    -0.00200
H209        H  0.22762245  0.01730155  0.11458271     0.13600
H210        H  0.20080537  0.96037504  0.11653531     0.13600
C211        C  0.28603437  0.46511996  0.12883284     0.81000
N212        N  0.28966558  0.46559577  0.15044781    -0.77300
C213        C  0.26690363  0.45692236  0.16381616     0.83400
N214        N  0.24050143  0.44765749  0.15545036    -0.77200
C215        C  0.23645564  0.44643528  0.13391272     0.83500
N216        N  0.25935239  0.45529605  0.12056436    -0.79000
C217        C  0.43820519  0.27300410  0.12885649     0.81000
N218        N  0.44460154  0.27581269  0.15016538    -0.77300
C219        C  0.43260086  0.25265566  0.16346483     0.83400
N220        N  0.41428984  0.22625543  0.15514923    -0.77200
C221        C  0.40799395  0.22304224  0.13384858     0.83500
N222        N  0.41985382  0.24641682  0.12076569    -0.79000
N223        N  0.00380834  0.30094079  0.12671275    -0.02700
C224        C  0.02707766  0.29901014  0.13165703    -0.00100
C225        C  0.01849243  0.27335815  0.14200871    -0.23000
C226        C  0.98902369  0.25904697  0.14365755    -0.23200
C227        C  0.98050213  0.27630228  0.13412454    -0.00200
H228        H  0.03225166  0.26612158  0.14810456     0.13600
H229        H  0.97528329  0.23841010  0.15117403     0.13600
O230        O  0.55631468  0.54982504  0.47618994    -0.77700
C231        C  0.50154451  0.54988163  0.52529190     0.83300
O232        O  0.53291173  0.46825688  0.52172918    -0.78800
O233        O  0.43899481  0.45755658  0.52149199    -0.80300
O234        O  0.46227498  0.49149915  0.44729926    -0.80100
O235        O  0.53354754  0.52572577  0.44667683    -0.78700
Zn236      Zn  0.53301215  0.52563824  0.50106830     1.55700
O237        O  0.43809980  0.49127937  0.47617699    -0.80100
Cd238      Cd  0.49710615  0.49045794  0.45914462     1.59700
Cd239      Cd  0.49742089  0.45692762  0.50216331     1.59600
O240        O  0.49345890  0.45309201  0.44772655    -0.80100
O241        O  0.49802726  0.49172599  0.49122099    -1.90600
Cd242      Cd  0.46369261  0.49276136  0.50176844     1.59900
O243        O  0.49618961  0.43129091  0.47700664    -0.80100
O244        O  0.47645982  0.52973757  0.51972465    -0.78700
C245        C  0.55463188  0.49277568  0.52638945     0.83800
C246        C  0.55435286  0.54751386  0.45584880     0.83500
O247        O  0.52401927  0.55009475  0.51937278    -0.77700
C248        C  0.44079422  0.49106355  0.45581430     0.84300
O249        O  0.55757517  0.51590133  0.51904092    -0.77800
C250        C  0.49371070  0.43221329  0.45667564     0.84400
C251        C  0.44062356  0.43596874  0.52711125     0.84700
O252        O  0.46095062  0.43268179  0.52067440    -0.80200
C253        C  0.53925975  0.70993278  0.62818108     0.81000
N254        N  0.55203660  0.73729726  0.62059620    -0.77300
C255        C  0.55979090  0.75948051  0.63424513     0.83400
N256        N  0.55521296  0.75426772  0.65555690    -0.77200
C257        C  0.54367882  0.72741251  0.66354108     0.83500
N258        N  0.53526603  0.70511903  0.64978731    -0.79000
C259        C  0.70970583  0.52458459  0.63249670     0.81000
N260        N  0.73731984  0.53931087  0.62521361    -0.77300
C261        C  0.75962977  0.54820562  0.63912391     0.83400
N262        N  0.75405172  0.54207064  0.66032710    -0.77200
C263        C  0.72662582  0.52802115  0.66791588     0.83500
N264        N  0.70441735  0.51938445  0.65390416    -0.79000
N265        N  0.70148705  0.99218031  0.62727862    -0.02700
C266        C  0.70537034  0.97004479  0.63167359    -0.00100
C267        C  0.73190875  0.98008051  0.64117880    -0.23000
C268        C  0.74474651  0.00927252  0.64288533    -0.23200
C269        C  0.72579471  0.01622300  0.63416192    -0.00200
H270        H  0.74070041  0.96743537  0.64669488     0.13600
H271        H  0.76563461  0.02387752  0.64976094     0.13600
C272        C  0.81508422  0.27350763  0.64094191     0.81000
N273        N  0.80381277  0.24568904  0.63521965    -0.77300
C274        C  0.79191659  0.22466486  0.65032383     0.83400
N275        N  0.79119238  0.23163653  0.67109749    -0.77200
C276        C  0.80210976  0.25930008  0.67701839     0.83500
N277        N  0.81438682  0.28029699  0.66184843    -0.79000
C278        C  0.17751293  0.45714145  0.62984738     0.81000
N279        N  0.17864871  0.46231176  0.65126313    -0.77300
C280        C  0.19408736  0.45550932  0.66441594     0.83400
N281        N  0.20817536  0.44332804  0.65612643    -0.77200
C282        C  0.20686171  0.43767051  0.63484909     0.83500
N283        N  0.19120932  0.44432060  0.62168468    -0.79000
N284        N  0.29075040  0.29385894  0.63043887    -0.02700
C285        C  0.26670016  0.29330048  0.63714458    -0.00100
C286        C  0.25004695  0.26935306  0.64981595    -0.23000
C287        C  0.26434450  0.25479896  0.65109773    -0.23200
C288        C  0.28921488  0.27023568  0.63909531    -0.00200
H289        H  0.22997877  0.26346134  0.65766499     0.13600
H290        H  0.25758796  0.23533713  0.66007469     0.13600
C291        C  0.45697482  0.18255321  0.63793652     0.81000
N292        N  0.46817989  0.18758702  0.65816342    -0.77300
C293        C  0.46129437  0.20162249  0.67270454     0.83400
N294        N  0.44343320  0.21067721  0.66670151    -0.77200
C295        C  0.43169017  0.20540081  0.64683621     0.83500
N296        N  0.43839045  0.19115286  0.63241101    -0.79000
C297        C  0.27078033  0.80294477  0.63749163     0.81000
N298        N  0.24254819  0.79120780  0.63250077    -0.77300
C299        C  0.22223268  0.77943032  0.64808915     0.83400
N300        N  0.23029415  0.77979719  0.66875308    -0.77200
C301        C  0.25841718  0.79089246  0.67385907     0.83500
N302        N  0.27856381  0.80224741  0.65807886    -0.79000
N303        N  0.99262149  0.69900841  0.62057583    -0.02700
C304        C  0.96950188  0.70187463  0.62351254    -0.00100
C305        C  0.97859830  0.72922757  0.63081225    -0.23000
C306        C  0.00807720  0.74343496  0.63277629    -0.23200
C307        C  0.01610303  0.72441206  0.62645861    -0.00200
H308        H  0.96508264  0.73748745  0.63523743     0.13600
H309        H  0.02200368  0.76492147  0.63878440     0.13600
N310        N  0.00767770  0.72073929  0.87506478    -0.02700
C311        C  0.98392000  0.72102362  0.86858736    -0.00100
C312        C  0.99168431  0.74813545  0.86152979    -0.23000
C313        C  0.02101795  0.76514620  0.86379573    -0.23200
C314        C  0.03041950  0.74787320  0.87194145    -0.00200
H315        H  0.97756358  0.75470981  0.85506089     0.13600
H316        H  0.03423627  0.78742289  0.85915154     0.13600
C317        C  0.46293258  0.19054301  0.86923022     0.81000
N318        N  0.44950454  0.20380366  0.87689317    -0.77300
C319        C  0.44218904  0.21855475  0.86343713     0.83400
N320        N  0.44839042  0.22000062  0.84220850    -0.77200
C321        C  0.46150060  0.20655417  0.83428555     0.83500
N322        N  0.46868722  0.19173108  0.84785558    -0.79000
C323        C  0.28721139  0.82839752  0.86798630     0.81000
N324        N  0.29264570  0.82610434  0.84701216    -0.77300
C325        C  0.27060566  0.81311062  0.83277922     0.83400
N326        N  0.24315475  0.80205599  0.83962549    -0.77200
C327        C  0.23756819  0.80433385  0.86045983     0.83500
N328        N  0.25965155  0.81775656  0.87457098    -0.79000
C329        C  0.55936047  0.72609241  0.86057450     0.81000
N330        N  0.57407055  0.75381315  0.86717501    -0.77300
C331        C  0.58341637  0.77553523  0.85276317     0.83400
N332        N  0.57741125  0.76946960  0.83157270    -0.77200
C333        C  0.56194774  0.74179264  0.82480613     0.83500
N334        N  0.55324315  0.72019638  0.83936054    -0.79000
C335        C  0.72580661  0.53846227  0.86378759     0.81000
N336        N  0.75411966  0.55804731  0.86731054    -0.77300
C337        C  0.77370538  0.56523894  0.85128389     0.83400
N338        N  0.76458953  0.55308437  0.83162869    -0.77200
C339        C  0.73624776  0.53393835  0.82785076     0.83500
N340        N  0.71694594  0.52658554  0.84405068    -0.79000
N341        N  0.71779972  0.00708881  0.89110610    -0.02700
C342        C  0.72084861  0.98434245  0.88694254    -0.00100
C343        C  0.74925827  0.99386966  0.88211458    -0.23000
C344        C  0.76423395  0.02327262  0.88339973    -0.23200
C345        C  0.74452056  0.03091342  0.88883588    -0.00200
H346        H  0.75801087  0.98086301  0.87756918     0.13600
H347        H  0.78685386  0.03759206  0.88001463     0.13600
C348        C  0.82189394  0.28436928  0.87258369     0.81000
N349        N  0.82041525  0.28755868  0.85107967    -0.77300
C350        C  0.80563910  0.26417157  0.83833962     0.83400
N351        N  0.79272029  0.23756139  0.84727696    -0.77200
C352        C  0.79474814  0.23417466  0.86869820     0.83500
N353        N  0.80921501  0.25770651  0.88133863    -0.79000
C354        C  0.17222320  0.44845373  0.86126572     0.81000
N355        N  0.18246997  0.43219807  0.86896609    -0.77300
C356        C  0.19381912  0.42138056  0.85530278     0.83400
N357        N  0.19507160  0.42711081  0.83398507    -0.77200
C358        C  0.18583729  0.44415677  0.82614971     0.83500
N359        N  0.17408667  0.45454850  0.83992129    -0.79000
N360        N  0.28954630  0.29090709  0.88643560    -0.02700
C361        C  0.26299043  0.28619146  0.88179032    -0.00100
C362        C  0.24526048  0.25867923  0.87417122    -0.23000
C363        C  0.26136249  0.24596009  0.87405422    -0.23200
C364        C  0.28846117  0.26615031  0.88152448    -0.00200
H365        H  0.22333814  0.24925362  0.86857217     0.13600
H366        H  0.25440607  0.22462517  0.86839818     0.13600
C367        C  0.26012186  0.35263473  0.86836263    -0.04700
C368        C  0.23602397  0.34773575  0.88036557     0.09500
C369        C  0.22170103  0.32347222  0.89383549    -0.02100
C370        C  0.23057301  0.30341227  0.89448312    -0.00300
C371        C  0.25454597  0.30808401  0.88219659    -0.03900
C372        C  0.26873775  0.33243137  0.86870430     0.03100
C373        C  0.22324004  0.36569590  0.87602655     0.09900
C374        C  0.19743549  0.31894878  0.90665292     0.35800
C375        C  0.28928025  0.33477647  0.85282334     0.39200
C376        C  0.20039366  0.35589197  0.86119765    -0.04300
C377        C  0.19030329  0.37386587  0.85490308     0.02800
C378        C  0.20317584  0.40191316  0.86324217    -0.03900
C379        C  0.22559109  0.41147412  0.87849118    -0.00100
C380        C  0.23536519  0.39324310  0.88504738    -0.02700
C381        C  0.18770606  0.32743520  0.85203807     0.36600
C382        C  0.23978029  0.44059651  0.88648165     0.40200
C383        C  0.16657530  0.36341616  0.83983852     0.39300
C384        C  0.25820901  0.40287257  0.90079037     0.36200
C385        C  0.27531559  0.37796876  0.85486977     0.36900
C386        C  0.21396262  0.27723994  0.90687021     0.40200
N387        N  0.14766269  0.35510614  0.82782156    -0.37900
N388        N  0.17763033  0.30470588  0.84482145    -0.39500
N389        N  0.25138975  0.46389696  0.89277575    -0.37200
N390        N  0.27636594  0.41041545  0.91340154    -0.39600
N391        N  0.17815788  0.31546720  0.91692772    -0.39400
N392        N  0.20049534  0.25627840  0.91662945    -0.37000
N393        N  0.30486844  0.33678780  0.83937094    -0.38100
N394        N  0.28758133  0.39829511  0.84426031    -0.39700
C395        C  0.79739101  0.17119572  0.89194685    -0.04700
C396        C  0.76948597  0.14820673  0.88706683     0.09500
C397        C  0.74880707  0.15387256  0.87883052    -0.02100
C398        C  0.75665065  0.18225400  0.87386383    -0.00300
C399        C  0.78517273  0.20515454  0.87732762    -0.03900
C400        C  0.80518248  0.19963607  0.88728649     0.03100
C401        C  0.76306670  0.11806890  0.88799208     0.09900
C402        C  0.71969890  0.13031312  0.87488039     0.35800
C403        C  0.83428357  0.22297218  0.89169595     0.39200
C404        C  0.75376712  0.10198913  0.90719632    -0.04300
C405        C  0.74854156  0.07380648  0.90781769     0.02800
C406        C  0.75160101  0.06123413  0.88900033    -0.03900
C407        C  0.76176238  0.07780657  0.86994576    -0.00100
C408        C  0.76734842  0.10600947  0.86946295    -0.02700
C409        C  0.74978298  0.11460274  0.92629830     0.36600
C410        C  0.76572256  0.06561607  0.85053205     0.40200
C411        C  0.74186059  0.05858238  0.92809442     0.39300
C412        C  0.77750688  0.12276391  0.84981196     0.36200
C413        C  0.81847721  0.16537227  0.90081343     0.36900
C414        C  0.73536942  0.18792490  0.86518857     0.40200
N415        N  0.73703182  0.04689047  0.94447210    -0.37900
N416        N  0.74658670  0.12472780  0.94151277    -0.39500
N417        N  0.76883704  0.05589314  0.83504691    -0.37200
N418        N  0.78561023  0.13622008  0.83419444    -0.39600
N419        N  0.69646987  0.11147093  0.87179110    -0.39400
N420        N  0.71838252  0.19249428  0.85834594    -0.37000
N421        N  0.85745245  0.24161113  0.89531001    -0.38100
N422        N  0.83525989  0.16064070  0.90784568    -0.39700
C423        C  0.64931938  0.85035441  0.85925562    -0.04700
C424        C  0.63892983  0.86294947  0.87352376     0.09500
C425        C  0.61061296  0.84646467  0.88159104    -0.02100
C426        C  0.59237551  0.81787340  0.87476662    -0.00300
C427        C  0.60247966  0.80556440  0.85996831    -0.03900
C428        C  0.63121628  0.82170542  0.85260448     0.03100
C429        C  0.65759972  0.89401847  0.87919317     0.09900
C430        C  0.60039039  0.85899120  0.89698599     0.35800
C431        C  0.64247379  0.80849276  0.83878416     0.39200
C432        C  0.65467680  0.91465861  0.86779526    -0.04300
C433        C  0.67485209  0.94416423  0.87063661     0.02800
C434        C  0.69741688  0.95340937  0.88574166    -0.03900
C435        C  0.69979925  0.93249717  0.89756573    -0.00100
C436        C  0.67983349  0.90299125  0.89439911    -0.02700
C437        C  0.63151970  0.90537819  0.85233735     0.36600
C438        C  0.72352187  0.94112735  0.91236598     0.40200
C439        C  0.67420588  0.96435121  0.85592158     0.39300
C440        C  0.68252394  0.88169623  0.90636462     0.36200
C441        C  0.67872449  0.86694459  0.85144716     0.36900
C442        C  0.56300441  0.80130836  0.88261061     0.40200
N443        N  0.67319539  0.97939142  0.84333249    -0.37900
N444        N  0.61296073  0.89792842  0.84009676    -0.39500
N445        N  0.74246755  0.94785361  0.92412161    -0.37200
N446        N  0.68459404  0.86462464  0.91585009    -0.39600
N447        N  0.59236544  0.86904039  0.90934150    -0.39400
N448        N  0.53955069  0.78804999  0.88883775    -0.37000
N449        N  0.65144129  0.79782526  0.82789196    -0.38100
N450        N  0.70223352  0.88017749  0.84532908    -0.39700
C451        C  0.40998449  0.26455557  0.87394851    -0.04700
C452        C  0.38141346  0.24338636  0.87931856     0.09500
C453        C  0.37361120  0.21450098  0.88132838    -0.02100
C454        C  0.39405036  0.20664681  0.87733252    -0.00300
C455        C  0.42222869  0.22757524  0.87073671    -0.03900
C456        C  0.43026438  0.25661580  0.86933850     0.03100
C457        C  0.35862492  0.25080424  0.88017747     0.09900
C458        C  0.34407481  0.19266089  0.88636804     0.35800
C459        C  0.45925499  0.27822966  0.86283210     0.39200
C460        C  0.34489570  0.25086444  0.86100647    -0.04300
C461        C  0.32219347  0.25608893  0.86153888     0.02800
C462        C  0.31320712  0.26167182  0.88129558    -0.03900
C463        C  0.32680241  0.26130870  0.90053186    -0.00100
C464        C  0.34961341  0.25607598  0.89993546    -0.02700
C465        C  0.35388881  0.24498121  0.84071683     0.36600
C466        C  0.31619293  0.26437872  0.92104580     0.40200
C467        C  0.30837367  0.25611384  0.84158865     0.39300
C468        C  0.36339493  0.25538551  0.91966159     0.36200
C469        C  0.41813344  0.29435099  0.87255373     0.36900
C470        C  0.38554779  0.17673254  0.87875360     0.40200
N471        N  0.29748789  0.25627972  0.82566478    -0.37900
N472        N  0.36113659  0.24022848  0.82460819    -0.39500
N473        N  0.30778690  0.26642834  0.93758902    -0.37200
N474        N  0.37435479  0.25475588  0.93540755    -0.39600
N475        N  0.32045361  0.17526325  0.89024268    -0.39400
N476        N  0.37888134  0.15291146  0.87988330    -0.37000
N477        N  0.48236493  0.29546928  0.85757788    -0.38100
N478        N  0.42451299  0.31809600  0.87152776    -0.39700
C479        C  0.10360978  0.76451766  0.89295495    -0.04700
C480        C  0.11972452  0.77241743  0.87376879     0.09500
C481        C  0.10708339  0.77367278  0.85438107    -0.02100
C482        C  0.07815383  0.76620629  0.85400165    -0.00300
C483        C  0.06145432  0.75713072  0.87305698    -0.03900
C484        C  0.07460755  0.75723708  0.89267454     0.03100
C485        C  0.15017426  0.77953258  0.87362690     0.09900
C486        C  0.12389238  0.78237751  0.83470728     0.35800
C487        C  0.05901509  0.75142093  0.91271510     0.39200
C488        C  0.15649221  0.75888015  0.86668384    -0.04300
C489        C  0.18529095  0.76667453  0.86342825     0.02800
C490        C  0.20785413  0.79523517  0.86689426    -0.03900
C491        C  0.20157526  0.81561902  0.87468254    -0.00100
C492        C  0.17276351  0.80769696  0.87817025    -0.02700
C493        C  0.13321334  0.72987865  0.86214910     0.36600
C494        C  0.22456602  0.84519285  0.87771773     0.40200
C495        C  0.19173372  0.74535736  0.85637459     0.39300
C496        C  0.16622487  0.82880290  0.88555184     0.36200
C497        C  0.11700287  0.76395291  0.91293398     0.36900
C498        C  0.06537698  0.76695735  0.83371834     0.40200
N499        N  0.19693882  0.72838405  0.85079839    -0.37900
N500        N  0.11457450  0.70681176  0.85844774    -0.39500
N501        N  0.24296386  0.86877877  0.88001159    -0.37200
N502        N  0.16099881  0.84562250  0.89148239    -0.39600
N503        N  0.13732757  0.78925676  0.81904830    -0.39400
N504        N  0.05520577  0.76758626  0.81755908    -0.37000
N505        N  0.04718030  0.74726979  0.92897255    -0.38100
N506        N  0.12781621  0.76357386  0.92883419    -0.39700
C507        C  0.90246512  0.67643932  0.87664014    -0.04700
C508        C  0.89473985  0.65214189  0.86401355     0.09500
C509        C  0.91635105  0.64970011  0.85363733    -0.02100
C510        C  0.94557644  0.67176617  0.85546379    -0.00300
C511        C  0.95351382  0.69616961  0.86824099    -0.03900
C512        C  0.93163162  0.69841120  0.87867688     0.03100
C513        C  0.86362231  0.62975224  0.86078151     0.09900
C514        C  0.90828240  0.62478730  0.84044902     0.35800
C515        C  0.93891161  0.72372114  0.89110586     0.39200
C516        C  0.84832400  0.63200732  0.84336685    -0.04300
C517        C  0.81901862  0.61094728  0.84022405     0.02800
C518        C  0.80460078  0.58761870  0.85472774    -0.03900
C519        C  0.81994370  0.58570207  0.87236842    -0.00100
C520        C  0.84941687  0.60652959  0.87521059    -0.02700
C521        C  0.86279457  0.65623096  0.82877087     0.36600
C522        C  0.80567731  0.56191567  0.88733577     0.40200
C523        C  0.80355918  0.61385291  0.82237041     0.39300
C524        C  0.86536890  0.60402465  0.89286412     0.36200
C525        C  0.88019249  0.67910101  0.88711901     0.36900
C526        C  0.96673849  0.67031836  0.84237966     0.40200
N527        N  0.79123556  0.61611939  0.80810691    -0.37900
N528        N  0.87435252  0.67561157  0.81718495    -0.39500
N529        N  0.79428798  0.54299595  0.89933464    -0.37200
N530        N  0.87828971  0.60212756  0.90685311    -0.39600
N531        N  0.90178717  0.60491327  0.82992101    -0.39400
N532        N  0.98266760  0.66842883  0.83125770    -0.37000
N533        N  0.94466568  0.74394136  0.90095540    -0.38100
N534        N  0.86239307  0.68121193  0.89543678    -0.39700
C535        C  0.25584069  0.77498836  0.73355661    -0.04700
C536        C  0.27826219  0.80149838  0.74140511     0.09500
C537        C  0.29633223  0.82346856  0.72693278    -0.02100
C538        C  0.29058887  0.81985559  0.70471692    -0.00300
C539        C  0.26706781  0.79375408  0.69682104    -0.03900
C540        C  0.25041740  0.77099569  0.71134506     0.03100
C541        C  0.28000020  0.80755607  0.76487530     0.09900
C542        C  0.32001241  0.85032997  0.73511373     0.35800
C543        C  0.22734789  0.74349119  0.70354185     0.39200
C544        C  0.29198345  0.79656534  0.77922546    -0.04300
C545        C  0.29026732  0.79960680  0.80157457     0.02800
C546        C  0.27622767  0.81332068  0.80954088    -0.03900
C547        C  0.26565909  0.82565509  0.79509355    -0.00100
C548        C  0.26760646  0.82282937  0.77283575    -0.02700
C549        C  0.30532643  0.78148680  0.77095967     0.36600
C550        C  0.25269550  0.84125862  0.80311897     0.40200
C551        C  0.30172070  0.78747731  0.81635346     0.39300
C552        C  0.25613071  0.83498079  0.75804709     0.36200
C553        C  0.23747674  0.75223938  0.74848040     0.36900
C554        C  0.30766812  0.84388707  0.69038122     0.40200
N555        N  0.31087828  0.77785926  0.82819116    -0.37900
N556        N  0.31589232  0.76937213  0.76435446    -0.39500
N557        N  0.24231787  0.85365440  0.80951332    -0.37200
N558        N  0.24716083  0.84473423  0.74616463    -0.39600
N559        N  0.33884346  0.87173765  0.74169858    -0.39400
N560        N  0.32126392  0.86313499  0.67901049    -0.37000
N561        N  0.20887962  0.72160334  0.69732469    -0.38100
N562        N  0.22285854  0.73413969  0.76041358    -0.39700
C563        C  0.15102649  0.77625635  0.64812993    -0.04700
C564        C  0.13418978  0.75251265  0.63466598     0.09500
C565        C  0.14654605  0.73812189  0.62502620    -0.02100
C566        C  0.17556568  0.74716865  0.62913570    -0.00300
C567        C  0.19211196  0.77036787  0.64313338    -0.03900
C568        C  0.17990474  0.78517120  0.65235427     0.03100
C569        C  0.10341911  0.74304418  0.63075862     0.09900
C570        C  0.12941269  0.71416504  0.61081484     0.35800
C571        C  0.19736540  0.81022779  0.66559617     0.39200
C572        C  0.09660836  0.75860000  0.61640089    -0.04300
C573        C  0.06831986  0.75313051  0.61543005     0.02800
C574        C  0.04615088  0.73056226  0.62767099    -0.03900
C575        C  0.05307796  0.71499322  0.64205885    -0.00100
C576        C  0.08157763  0.72103928  0.64342579    -0.02700
C577        C  0.11897495  0.78058021  0.60287187     0.36600
C578        C  0.03185084  0.69520023  0.65731497     0.40200
C579        C  0.06253648  0.77181085  0.60269566     0.39300
C580        C  0.08872466  0.70534419  0.65844779     0.36200
C581        C  0.13858973  0.79163820  0.65751449     0.36900
C582        C  0.18831492  0.73242936  0.61918660     0.40200
N583        N  0.05816697  0.78703986  0.59271785    -0.37900
N584        N  0.13686973  0.79794655  0.59201789    -0.39500
N585        N  0.01558926  0.67996578  0.67009530    -0.37200
N586        N  0.09444666  0.69280172  0.67038329    -0.39600
N587        N  0.11576362  0.69506726  0.59943884    -0.39400
N588        N  0.19858036  0.72078348  0.61120402    -0.37000
N589        N  0.21137396  0.83027296  0.67606508    -0.38100
N590        N  0.12862762  0.80394004  0.66485365    -0.39700
C591        C  0.47722686  0.22898436  0.73013677    -0.04700
C592        C  0.47183848  0.20430831  0.74145636     0.09500
C593        C  0.46694918  0.17994860  0.73000604    -0.02100
C594        C  0.46544169  0.17950374  0.70732312    -0.00300
C595        C  0.46911018  0.20367532  0.69592294    -0.03900
C596        C  0.47621192  0.22882919  0.70750667     0.03100
C597        C  0.46921467  0.20341651  0.76544339     0.09900
C598        C  0.46241430  0.15494944  0.74170750     0.35800
C599        C  0.48211187  0.25460115  0.69618097     0.39200
C600        C  0.44205571  0.19334683  0.77497873    -0.04300
C601        C  0.43951229  0.19386765  0.79748339     0.02800
C602        C  0.46422487  0.20488254  0.81065528    -0.03900
C603        C  0.49138214  0.21474312  0.80110363    -0.00100
C604        C  0.49381015  0.21379606  0.77856362    -0.02700
C605        C  0.41673711  0.18277480  0.76152834     0.36600
C606        C  0.51700564  0.22710780  0.81436140     0.40200
C607        C  0.41131617  0.18262103  0.80710545     0.39300
C608        C  0.52163035  0.22379341  0.76876028     0.36200
C609        C  0.48271396  0.25422037  0.74189814     0.36900
C610        C  0.45827405  0.15347146  0.69599281     0.40200
N611        N  0.38889101  0.17367930  0.81486462    -0.37900
N612        N  0.39657874  0.17440243  0.75077012    -0.39500
N613        N  0.53747793  0.23716412  0.82493077    -0.37200
N614        N  0.54377646  0.23167920  0.76085525    -0.39600
N615        N  0.45883485  0.13504456  0.75109402    -0.39400
N616        N  0.45255098  0.13268511  0.68696170    -0.37000
N617        N  0.48674500  0.27513537  0.68717350    -0.38100
N618        N  0.48699007  0.27427566  0.75132688    -0.39700
C619        C  0.36874913  0.21594352  0.65508373    -0.04700
C620        C  0.37155988  0.23321655  0.63729588     0.09500
C621        C  0.39283516  0.23967983  0.62163730    -0.02100
C622        C  0.41185182  0.22954464  0.62409705    -0.00300
C623        C  0.40953249  0.21283320  0.64224337    -0.03900
C624        C  0.38728583  0.20539510  0.65738349     0.03100
C625        C  0.35184271  0.24447951  0.63540350     0.09900
C626        C  0.39552778  0.25737316  0.60333522     0.35800
C627        C  0.38310425  0.18648849  0.67527557     0.39200
C628        C  0.35908892  0.27050839  0.64539886    -0.04300
C629        C  0.33883040  0.27918762  0.64636418     0.02800
C630        C  0.31129227  0.26205034  0.63703654    -0.03900
C631        C  0.30388141  0.23557000  0.62754434    -0.00100
C632        C  0.32432589  0.22720114  0.62627896    -0.02700
C633        C  0.38690763  0.28753423  0.65574034     0.36600
C634        C  0.27478556  0.21617436  0.61997765     0.40200
C635        C  0.34529528  0.30391597  0.65917070     0.39300
C636        C  0.31677252  0.20023206  0.61628097     0.36200
C637        C  0.34712911  0.20964668  0.67135657     0.36900
C638        C  0.43446958  0.23731569  0.60843749     0.40200
N639        N  0.35080902  0.32327898  0.66999437    -0.37900
N640        N  0.40904361  0.30098785  0.66407896    -0.39500
N641        N  0.25153976  0.20058690  0.61405429    -0.37200
N642        N  0.31083370  0.17874015  0.60831110    -0.39600
N643        N  0.39762453  0.27156043  0.58878313    -0.39400
N644        N  0.45250911  0.24350336  0.59592215    -0.37000
N645        N  0.37976631  0.17139564  0.68951567    -0.38100
N646        N  0.33000116  0.20486065  0.68436009    -0.39700
C647        C  0.17540805  0.43093972  0.72222586    -0.04700
C648        C  0.19030916  0.45727275  0.73327599     0.09500
C649        C  0.20517528  0.48322805  0.72160665    -0.02100
C650        C  0.20552685  0.48280573  0.69894783    -0.00300
C651        C  0.19148959  0.45640778  0.68797093    -0.03900
C652        C  0.17601775  0.43049787  0.69963372     0.03100
C653        C  0.19071538  0.45731974  0.75728046     0.09900
C654        C  0.22052021  0.51025590  0.73297494     0.35800
C655        C  0.16044360  0.40337296  0.68832897     0.39200
C656        C  0.21330814  0.45733818  0.76830489    -0.04300
C657        C  0.21250050  0.45477272  0.79086932     0.02800
C658        C  0.18826591  0.45069900  0.80259990    -0.03900
C659        C  0.16608955  0.45174089  0.79141261    -0.00100
C660        C  0.16767490  0.45556583  0.76890718    -0.02700
C661        C  0.23716783  0.45943308  0.75628886     0.36600
C662        C  0.14091111  0.44768656  0.80265084     0.40200
C663        C  0.23710923  0.45708234  0.80192220     0.39300
C664        C  0.14537060  0.45731704  0.75752943     0.36200
C665        C  0.15981156  0.40425996  0.73418275     0.36900
C666        C  0.22082487  0.50943024  0.68692012     0.40200
N667        N  0.25680477  0.45904941  0.81070609    -0.37900
N668        N  0.25611015  0.46100482  0.74665532    -0.39500
N669        N  0.12068244  0.44452797  0.81136162    -0.37200
N670        N  0.12774917  0.45892503  0.74838756    -0.39600
N671        N  0.23286299  0.53180199  0.74208753    -0.39400
N672        N  0.23292393  0.53063829  0.67726165    -0.37000
N673        N  0.14798999  0.38179909  0.67925766    -0.38100
N674        N  0.14737682  0.38300861  0.74375688    -0.39700
C675        C  0.25026507  0.35177616  0.64830937    -0.04700
C676        C  0.24547960  0.35853484  0.62745137     0.09500
C677        C  0.24785949  0.34408081  0.60962979    -0.02100
C678        C  0.25449539  0.32254419  0.61265692    -0.00300
C679        C  0.25987586  0.31611411  0.63350938    -0.03900
C680        C  0.25732110  0.33062662  0.65136079     0.03100
C681        C  0.23600359  0.37958020  0.62469595     0.09900
C682        C  0.24294361  0.35108484  0.58820236     0.35800
C683        C  0.26191034  0.32383366  0.67299628     0.39200
C684        C  0.25627285  0.40927360  0.62588447    -0.04300
C685        C  0.24680642  0.42878778  0.62767933     0.02800
C686        C  0.21706639  0.41871636  0.62760398    -0.03900
C687        C  0.19693915  0.38925937  0.62444613    -0.00100
C688        C  0.20636376  0.36968041  0.62333133    -0.02700
C689        C  0.28678768  0.41949600  0.62612268     0.36600
C690        C  0.16638875  0.37886811  0.62377523     0.40200
C691        C  0.26758778  0.45913660  0.63030993     0.39300
C692        C  0.18549072  0.33915301  0.62215850     0.36200
C693        C  0.24741555  0.36634300  0.66671299     0.36900
C694        C  0.25328661  0.30553490  0.59446651     0.40200
N695        N  0.28418441  0.48335400  0.63242344    -0.37900
N696        N  0.31110296  0.42749874  0.62624689    -0.39500
N697        N  0.14203830  0.37065538  0.62318758    -0.37200
N698        N  0.16890365  0.31477223  0.62133721    -0.39600
N699        N  0.23904976  0.35670338  0.57110188    -0.39400
N700        N  0.25154736  0.29198698  0.57966888    -0.37000
N701        N  0.26553941  0.31840912  0.69024358    -0.38100
N702        N  0.24513831  0.37801172  0.68134230    -0.39700
C703        C  0.77761957  0.25187590  0.73521908    -0.04700
C704        C  0.80320387  0.27266173  0.74538292     0.09500
C705        C  0.82727388  0.29179637  0.73286717    -0.02100
C706        C  0.82668877  0.28850942  0.71033991    -0.00300
C707        C  0.80176371  0.26607851  0.70019018    -0.03900
C708        C  0.77683681  0.24855213  0.71274442     0.03100
C709        C  0.80557068  0.27222749  0.76930150     0.09900
C710        C  0.85284336  0.31450040  0.74333012     0.35800
C711        C  0.75023348  0.22699580  0.70260816     0.39200
C712        C  0.81361095  0.25399303  0.77883531    -0.04300
C713        C  0.81416059  0.25180937  0.80135638     0.02800
C714        C  0.80616246  0.26751821  0.81458606    -0.03900
C715        C  0.79895033  0.28647253  0.80498792    -0.00100
C716        C  0.79888262  0.28894877  0.78239427    -0.02700
C717        C  0.82140664  0.23747966  0.76535394     0.36600
C718        C  0.79070632  0.30277210  0.81827135     0.40200
C719        C  0.82396747  0.23411310  0.81086921     0.39300
C720        C  0.79194172  0.30865702  0.77253552     0.36200
C721        C  0.75220459  0.23358152  0.74804772     0.36900
C722        C  0.85235489  0.30735874  0.69797646     0.40200
N723        N  0.83188211  0.22011781  0.81851323    -0.37900
N724        N  0.82764274  0.22436963  0.75455700    -0.39500
N725        N  0.78411632  0.31577866  0.82886044    -0.37200
N726        N  0.78662414  0.32452209  0.76461143    -0.39600
N727        N  0.87311971  0.33273121  0.75172137    -0.39400
N728        N  0.87297638  0.32264213  0.68832093    -0.37000
N729        N  0.72902998  0.20975790  0.69454457    -0.38100
N730        N  0.73193888  0.21914116  0.75832709    -0.39700
C731        C  0.75060405  0.15065448  0.62458731    -0.04700
C732        C  0.76119314  0.13607310  0.63643602     0.09500
C733        C  0.78288194  0.15094386  0.65195258    -0.02100
C734        C  0.79330229  0.18003482  0.65612813    -0.00300
C735        C  0.78215917  0.19455868  0.64474542    -0.03900
C736        C  0.76118572  0.17991739  0.62862776     0.03100
C737        C  0.74946918  0.10484458  0.63303132     0.09900
C738        C  0.79444511  0.13616852  0.66366826     0.35800
C739        C  0.74987711  0.19466685  0.61662299     0.39200
C740        C  0.76561969  0.09602441  0.62133740    -0.04300
C741        C  0.75747176  0.06699026  0.62136594     0.02800
C742        C  0.73240801  0.04627862  0.63248783    -0.03900
C743        C  0.71585071  0.05513821  0.64377914    -0.00100
C744        C  0.72424220  0.08430818  0.64384782    -0.02700
C745        C  0.79131885  0.11713815  0.60993652     0.36600
C746        C  0.69210562  0.03517492  0.65732482     0.40200
C747        C  0.77572854  0.05873700  0.61067101     0.39300
C748        C  0.70778920  0.09353074  0.65601779     0.36200
C749        C  0.72870248  0.13539712  0.60837084     0.36900
C750        C  0.81604785  0.19517379  0.67182595     0.40200
N751        N  0.79037398  0.05217008  0.60227104    -0.37900
N752        N  0.81183305  0.13400824  0.60087598    -0.39500
N753        N  0.67340645  0.02015133  0.66870709    -0.37200
N754        N  0.69470929  0.10094281  0.66570584    -0.39600
N755        N  0.80371152  0.12433208  0.67286103    -0.39400
N756        N  0.83419207  0.20725061  0.68433009    -0.37000
N757        N  0.74089432  0.20643141  0.60697863    -0.38100
N758        N  0.71119573  0.12310940  0.59546780    -0.39700
C759        C  0.73606034  0.54596608  0.72751920    -0.04700
C760        C  0.71658744  0.51914146  0.73688245     0.09500
C761        C  0.69862216  0.49558130  0.72362046    -0.02100
C762        C  0.70124723  0.49845465  0.70100793    -0.00300
C763        C  0.72161845  0.52510861  0.69158341    -0.03900
C764        C  0.73829754  0.54907473  0.70502733     0.03100
C765        C  0.71616829  0.51613695  0.76080265     0.09900
C766        C  0.67764087  0.46840722  0.73331648     0.35800
C767        C  0.75732474  0.57725676  0.69578826     0.39200
C768        C  0.70033494  0.52443888  0.77351572    -0.04300
C769        C  0.70522107  0.52822036  0.79586161     0.02800
C770        C  0.72644870  0.52420840  0.80549627    -0.03900
C771        C  0.74029807  0.51335164  0.79300972    -0.00100
C772        C  0.73502768  0.50917022  0.77075250    -0.02700
C773        C  0.68005594  0.53044189  0.76335832     0.36600
C774        C  0.76016413  0.50667576  0.80306715     0.40200
C775        C  0.68953589  0.53781825  0.80858571     0.39300
C776        C  0.74984826  0.49875418  0.75787830     0.36200
C777        C  0.75411505  0.57038905  0.74117583     0.36900
C778        C  0.68373697  0.47370902  0.68754971     0.40200
N779        N  0.67686645  0.54529363  0.81873812    -0.37900
N780        N  0.66390904  0.53525823  0.75522190    -0.39500
N781        N  0.77595844  0.50133482  0.81116074    -0.37200
N782        N  0.76155688  0.49031429  0.74759991    -0.39600
N783        N  0.66079674  0.44677945  0.74109707    -0.39400
N784        N  0.66974635  0.45394556  0.67681673    -0.37000
N785        N  0.77241862  0.59974469  0.68843007    -0.38100
N786        N  0.76844805  0.58973781  0.75217119    -0.39700
C787        C  0.84093313  0.58354013  0.63463771    -0.04700
C788        C  0.84872782  0.61001652  0.62498989     0.09500
C789        C  0.82703684  0.61487929  0.61780324    -0.02100
C790        C  0.79771822  0.59405420  0.62138308    -0.00300
C791        C  0.78991299  0.56811171  0.63212026    -0.03900
C792        C  0.81166021  0.56263003  0.63811972     0.03100
C793        C  0.87975490  0.63366105  0.62418877     0.09900
C794        C  0.83500036  0.64184144  0.60745506     0.35800
C795        C  0.80391257  0.53537265  0.64783779     0.39200
C796        C  0.89562939  0.64060563  0.60489534    -0.04300
C797        C  0.92484060  0.66308613  0.60438357     0.02800
C798        C  0.93860577  0.67817503  0.62337698    -0.03900
C799        C  0.92247539  0.67117140  0.64267490    -0.00100
C800        C  0.89320718  0.64923711  0.64299759    -0.02700
C801        C  0.88174291  0.62466413  0.58553956     0.36600
C802        C  0.93611943  0.68604253  0.66248691     0.40200
C803        C  0.94001334  0.67141643  0.58406307     0.39300
C804        C  0.87677406  0.64270911  0.66275653     0.36200
C805        C  0.86321557  0.57822928  0.64150937     0.36900
C806        C  0.77579190  0.60017383  0.61511800     0.40200
N807        N  0.95144577  0.67773512  0.56754988    -0.37900
N808        N  0.87059158  0.61195180  0.57010156    -0.39500
N809        N  0.94700967  0.69793093  0.67825650    -0.37200
N810        N  0.86365230  0.63748850  0.67849601    -0.39600
N811        N  0.84140988  0.66332376  0.59912524    -0.39400
N812        N  0.75830996  0.60506609  0.61011256    -0.37000
N813        N  0.79773377  0.51358255  0.65550843    -0.38100
N814        N  0.88111191  0.57420039  0.64703200    -0.39700
C815        C  0.57161098  0.74116050  0.72085114    -0.04700
C816        C  0.54621012  0.72346584  0.73265093     0.09500
C817        C  0.52025319  0.70513524  0.72164959    -0.02100
C818        C  0.51943947  0.70547351  0.69894227    -0.00300
C819        C  0.54471640  0.72383648  0.68715316    -0.03900
C820        C  0.57098938  0.74105572  0.69823993     0.03100
C821        C  0.54699623  0.72534131  0.75668530     0.09900
C822        C  0.49431494  0.68640184  0.73376732     0.35800
C823        C  0.59755767  0.75873397  0.68638163     0.39200
C824        C  0.53910773  0.74314570  0.76706561    -0.04300
C825        C  0.54330463  0.74794790  0.78939580     0.02800
C826        C  0.55584622  0.73529124  0.80150186    -0.03900
C827        C  0.56312261  0.71692292  0.79111844    -0.00100
C828        C  0.55831089  0.71167229  0.76886638    -0.02700
C829        C  0.52721716  0.75701573  0.75460549     0.36600
C830        C  0.57718281  0.70476014  0.80301083     0.40200
C831        C  0.53443275  0.76573920  0.79991714     0.39300
C832        C  0.56546016  0.69256670  0.75833182     0.36200
C833        C  0.59829971  0.76020078  0.73206699     0.36900
C834        C  0.49234367  0.68809281  0.68778679     0.40200
N835        N  0.52732465  0.77990807  0.80830965    -0.37900
N836        N  0.51771123  0.76801144  0.74460408    -0.39500
N837        N  0.58858762  0.69524505  0.81248916    -0.37200
N838        N  0.57103250  0.67724230  0.74989388    -0.39600
N839        N  0.47363445  0.67144466  0.74347832    -0.39400
N840        N  0.47071449  0.67433594  0.67884917    -0.37000
N841        N  0.61870437  0.77281393  0.67690288    -0.38100
N842        N  0.61951272  0.77542823  0.74106423    -0.39700
C843        C  0.62554164  0.82889427  0.61584954    -0.04700
C844        C  0.61881166  0.84898985  0.62348807     0.09500
C845        C  0.59100386  0.83946850  0.63148978    -0.02100
C846        C  0.57074721  0.80991214  0.63346512    -0.00300
C847        C  0.57803397  0.78969057  0.62711560    -0.03900
C848        C  0.60504939  0.79927216  0.61738658     0.03100
C849        C  0.64170266  0.87997321  0.62515520     0.09900
C850        C  0.58384205  0.86022604  0.63869225     0.35800
C851        C  0.61260930  0.77876434  0.61034412     0.39200
C852        C  0.65129276  0.89772716  0.60679495    -0.04300
C853        C  0.67286539  0.92697391  0.60866534     0.02800
C854        C  0.68356710  0.93898701  0.62911531    -0.03900
C855        C  0.67414504  0.92097928  0.64746142    -0.00100
C856        C  0.65362836  0.89155803  0.64541897    -0.02700
C857        C  0.63879294  0.88585681  0.58600958     0.36600
C858        C  0.68495999  0.93278858  0.66863648     0.40200
C859        C  0.68531000  0.94390482  0.58939066     0.39300
C860        C  0.64462613  0.87312027  0.66424527     0.36200
C861        C  0.65416957  0.83867220  0.60767069     0.36900
C862        C  0.54262630  0.80029467  0.64262474     0.40200
N863        N  0.69522004  0.95662247  0.57366647    -0.37900
N864        N  0.62872436  0.87634819  0.56945289    -0.39500
N865        N  0.69347703  0.94227234  0.68550638    -0.37200
N866        N  0.63741393  0.85841759  0.67924483    -0.39600
N867        N  0.57841149  0.87694097  0.64452444    -0.39400
N868        N  0.52023380  0.79266828  0.64998145    -0.37000
N869        N  0.61856845  0.76237250  0.60467153    -0.38100
N870        N  0.67703041  0.84647662  0.60119478    -0.39700
C871        C  0.49237725  0.59056700  0.57137184    -0.04700
C872        C  0.51568841  0.61873434  0.56770097     0.09500
C873        C  0.53342273  0.62451812  0.54956106    -0.02100
C874        C  0.52797280  0.60229737  0.53521175    -0.00300
C875        C  0.50516870  0.57376961  0.53921025    -0.03900
C876        C  0.48720846  0.56813226  0.55731072     0.03100
C877        C  0.52178222  0.64223055  0.58320008     0.09900
C878        C  0.55774789  0.65330745  0.54593555     0.35800
C879        C  0.46418011  0.53907829  0.56214101     0.39200
C880        C  0.53516957  0.64409323  0.60304023    -0.04300
C881        C  0.54008559  0.66555217  0.61800264     0.02800
C882        C  0.53240648  0.68602136  0.61299139    -0.03900
C883        C  0.51932321  0.68427838  0.59287558    -0.00100
C884        C  0.51390339  0.66238904  0.57816451    -0.02700
C885        C  0.54453930  0.62422520  0.60780707     0.36600
C886        C  0.51069488  0.70453720  0.58737895     0.40200
C887        C  0.55387453  0.66689352  0.63827673     0.39300
C888        C  0.50014998  0.66051496  0.55775681     0.36200
C889        C  0.47400666  0.58464243  0.58994253     0.36900
C890        C  0.54562567  0.60904588  0.51607757     0.40200
N891        N  0.56469953  0.66782194  0.65450593    -0.37900
N892        N  0.55212353  0.60844517  0.61151842    -0.39500
N893        N  0.50385809  0.72070067  0.58289093    -0.37200
N894        N  0.48927625  0.65899581  0.54143092    -0.39600
N895        N  0.57721199  0.67624225  0.54306469    -0.39400
N896        N  0.55964050  0.61438222  0.50079823    -0.37000
N897        N  0.44582716  0.51591186  0.56605511    -0.38100
N898        N  0.45949777  0.58002989  0.60483023    -0.39700
C899        C  0.65411827  0.53233592  0.60132928    -0.04700
C900        C  0.64263414  0.50844975  0.58743385     0.09500
C901        C  0.65275297  0.48937189  0.58885246    -0.02100
C902        C  0.67484562  0.49470836  0.60349263    -0.00300
C903        C  0.68593786  0.51832849  0.61754080    -0.03900
C904        C  0.67509617  0.53677649  0.61671605     0.03100
C905        C  0.61965698  0.50325852  0.57149652     0.09900
C906        C  0.64010507  0.46403484  0.57543366     0.35800
C907        C  0.68568789  0.56044361  0.63168844     0.39200
C908        C  0.62602837  0.50774415  0.54930379    -0.04300
C909        C  0.60436239  0.50289925  0.53439685     0.02800
C910        C  0.57657125  0.49484152  0.54164114    -0.03900
C911        C  0.57032282  0.49083172  0.56381861    -0.00100
C912        C  0.59154320  0.49430853  0.57862655    -0.02700
C913        C  0.65509321  0.51809633  0.54187413     0.36600
C914        C  0.54246987  0.48456341  0.57151340     0.40200
C915        C  0.61052044  0.50578566  0.51157346     0.39300
C916        C  0.58454335  0.48897179  0.60128321     0.36200
C917        C  0.64468184  0.55263700  0.59954195     0.36900
C918        C  0.68604985  0.47579296  0.60422791     0.40200
N919        N  0.61537213  0.50770829  0.49335447    -0.37900
N920        N  0.67832206  0.52647689  0.53597249    -0.39500
N921        N  0.52041844  0.48001556  0.57767454    -0.37200
N922        N  0.57901872  0.48477862  0.61937215    -0.39600
N923        N  0.62988151  0.44379106  0.56474647    -0.39400
N924        N  0.69505698  0.46075027  0.60476814    -0.37000
N925        N  0.69403609  0.57912162  0.64380662    -0.38100
N926        N  0.63718414  0.56885736  0.59807900    -0.39700
C927        C  0.40555999  0.38267206  0.57338131    -0.04700
C928        C  0.37655535  0.37468653  0.57122682     0.09500
C929        C  0.36825156  0.38584943  0.55417925    -0.02100
C930        C  0.38900602  0.40538587  0.53948905    -0.00300
C931        C  0.41838623  0.41419097  0.54192725    -0.03900
C932        C  0.42644006  0.40234418  0.55884972     0.03100
C933        C  0.35454337  0.35385819  0.58669185     0.09900
C934        C  0.33820631  0.37698908  0.55173833     0.35800
C935        C  0.45624560  0.41057065  0.56169153     0.39200
C936        C  0.35092348  0.36323927  0.60683663    -0.04300
C937        C  0.33018290  0.34348428  0.62143516     0.02800
C938        C  0.31257253  0.31424864  0.61580842    -0.03900
C939        C  0.31611829  0.30510480  0.59544902    -0.00100
C940        C  0.33731144  0.32473165  0.58112006    -0.02700
C941        C  0.36862064  0.39330967  0.61247785     0.36600
C942        C  0.29673227  0.27594621  0.58845544     0.40200
C943        C  0.32758566  0.35337757  0.64234612     0.39300
C944        C  0.34136152  0.31503084  0.56050092     0.36200
C945        C  0.41381538  0.37042153  0.59058403     0.36900
C946        C  0.37979318  0.41541902  0.52138158     0.40200
N947        N  0.32628272  0.36199998  0.65898153    -0.37900
N948        N  0.38277456  0.41730574  0.61693661    -0.39500
N949        N  0.28122204  0.25309385  0.58198878    -0.37200
N950        N  0.34465362  0.30733789  0.54406301    -0.39600
N951        N  0.31420310  0.36977378  0.54983487    -0.39400
N952        N  0.37240228  0.42330403  0.50689506    -0.37000
N953        N  0.47992543  0.41680736  0.56393589    -0.38100
N954        N  0.42028832  0.36057952  0.60431249    -0.39700
C955        C  0.10514894  0.35516489  0.14400585    -0.04700
C956        C  0.11606684  0.36637907  0.12337150     0.09500
C957        C  0.09800839  0.35468700  0.10527984    -0.02100
C958        C  0.06928906  0.33181180  0.10780590    -0.00300
C959        C  0.05781645  0.32195371  0.12855714    -0.03900
C960        C  0.07608647  0.33342982  0.14663956     0.03100
C961        C  0.14698015  0.38977194  0.12103851     0.09900
C962        C  0.10911126  0.36593036  0.08402909     0.35800
C963        C  0.06500846  0.32313949  0.16810496     0.39200
C964        C  0.16728444  0.38369669  0.11256697    -0.04300
C965        C  0.19700483  0.40387186  0.11458111     0.02800
C966        C  0.20651222  0.42973139  0.12579878    -0.03900
C967        C  0.18622184  0.43675303  0.13266729    -0.00100
C968        C  0.15654229  0.41704483  0.12990014    -0.02700
C969        C  0.15768917  0.35593524  0.10307473     0.36600
C970        C  0.19586974  0.46383037  0.14335410     0.40200
C971        C  0.21767593  0.39693996  0.10658997     0.39300
C972        C  0.13568464  0.42406936  0.13730303     0.36200
C973        C  0.12400673  0.36579811  0.16258712     0.36900
C974        C  0.05261760  0.31692177  0.08896514     0.40200
N975        N  0.23420687  0.39150874  0.10015493    -0.37900
N976        N  0.15005142  0.33383665  0.09542263    -0.39500
N977        N  0.20353853  0.48537404  0.15195427    -0.37200
N978        N  0.11894160  0.42947631  0.14327462    -0.39600
N979        N  0.11800694  0.37478093  0.06705510    -0.39400
N980        N  0.04014562  0.30497900  0.07364106    -0.37000
N981        N  0.05620180  0.31501262  0.18522493    -0.38100
N982        N  0.13907483  0.37433806  0.17736318    -0.39700
C983        C  0.31153840  0.09409185  0.09197049    -0.04700
C984        C  0.33091141  0.10469139  0.10939120     0.09500
C985        C  0.32932189  0.08553110  0.12533523    -0.02100
C986        C  0.30803501  0.05611248  0.12420188    -0.00300
C987        C  0.28870464  0.04533081  0.10670084    -0.03900
C988        C  0.29006539  0.06465417  0.09089101     0.03100
C989        C  0.35047593  0.13634502  0.11269273     0.09900
C990        C  0.34880092  0.09642876  0.14353320     0.35800
C991        C  0.26824737  0.05477919  0.07432363     0.39200
C992        C  0.33936038  0.15224794  0.12178219    -0.04300
C993        C  0.35811674  0.18101164  0.12793744     0.02800
C994        C  0.38810668  0.19403562  0.12509956    -0.03900
C995        C  0.39910914  0.17866999  0.11496305    -0.00100
C996        C  0.38031245  0.14990770  0.10868720    -0.02700
C997        C  0.30860330  0.13869697  0.12527414     0.36600
C998        C  0.42988303  0.19217902  0.11168920     0.40200
C999        C  0.34656101  0.19716912  0.13732717     0.39300
C1000       C  0.39163447  0.13406408  0.09842958     0.36200
C1001       C  0.31329417  0.11372009  0.07547268     0.36900
C1002       C  0.30382219  0.03784149  0.14246668     0.40200
N1003       N  0.33723912  0.21002675  0.14472182    -0.37900
N1004       N  0.28403127  0.12778300  0.12791206    -0.39500
N1005       N  0.45446191  0.20300034  0.10914638    -0.37200
N1006       N  0.40066942  0.12145396  0.09017070    -0.39600
N1007       N  0.36439762  0.10520620  0.15799944    -0.39400
N1008       N  0.30032170  0.02402536  0.15757661    -0.37000
N1009       N  0.25070179  0.04728083  0.06121114    -0.38100
N1010       N  0.31476114  0.12942039  0.06231204    -0.39700
C1011       C  0.25633911  0.85599868  0.12374571    -0.04700
C1012       C  0.23079000  0.85634433  0.12086372     0.09500
C1013       C  0.20384031  0.83053709  0.12234984    -0.02100
C1014       C  0.20240813  0.80463017  0.12721684    -0.00300
C1015       C  0.22792866  0.80437254  0.13059263    -0.03900
C1016       C  0.25491422  0.83004728  0.12861265     0.03100
C1017       C  0.23232761  0.88416259  0.11710436     0.09900
C1018       C  0.17757046  0.83075535  0.11918533     0.35800
C1019       C  0.28116805  0.82970476  0.13142541     0.39200
C1020       C  0.23756014  0.89623892  0.09634403    -0.04300
C1021       C  0.24048255  0.92321278  0.09306346     0.02800
C1022       C  0.23848431  0.93841441  0.11061851    -0.03900
C1023       C  0.23156064  0.92541583  0.13120471    -0.00100
C1024       C  0.22877962  0.89854768  0.13444326    -0.02700
C1025       C  0.23952211  0.88059503  0.07833013     0.36600
C1026       C  0.22802596  0.94000244  0.14927786     0.40200
C1027       C  0.24386055  0.93429211  0.07142854     0.39300
C1028       C  0.22255403  0.88573583  0.15570215     0.36200
C1029       C  0.28403448  0.88251351  0.12201062     0.36900
C1030       C  0.17460935  0.77830284  0.12944714     0.40200
N1031       N  0.24601102  0.94216742  0.05387820    -0.37900
N1032       N  0.24096982  0.86799698  0.06399160    -0.39500
N1033       N  0.22522262  0.95164401  0.16368654    -0.37200
N1034       N  0.21751024  0.87539891  0.17261742    -0.39600
N1035       N  0.15657149  0.83088090  0.11670508    -0.39400
N1036       N  0.15256359  0.75719098  0.13128302    -0.37000
N1037       N  0.30216382  0.82947878  0.13357332    -0.38100
N1038       N  0.30602331  0.90377204  0.12056797    -0.39700
C1039       C  0.75024308  0.65797237  0.14445790    -0.04700
C1040       C  0.77781665  0.66993574  0.13513613     0.09500
C1041       C  0.79181157  0.69807766  0.12687803    -0.02100
C1042       C  0.77920423  0.71483322  0.12918174    -0.00300
C1043       C  0.75170048  0.70310472  0.13883968    -0.03900
C1044       C  0.73720712  0.67445290  0.14631537     0.03100
C1045       C  0.79364186  0.65430942  0.13665469     0.09900
C1046       C  0.81978760  0.71012089  0.11673065     0.35800
C1047       C  0.71033807  0.66267312  0.15796928     0.39200
C1048       C  0.78721288  0.63148857  0.12264900    -0.04300
C1049       C  0.80045515  0.61530266  0.12555846     0.02800
C1050       C  0.82060017  0.62220367  0.14231467    -0.03900
C1051       C  0.82792203  0.64594145  0.15569995    -0.00100
C1052       C  0.81440505  0.66177830  0.15293856    -0.02700
C1053       C  0.76666182  0.62450669  0.10543638     0.36600
C1054       C  0.84943521  0.65419041  0.17241643     0.40200
C1055       C  0.79205144  0.59057046  0.11209756     0.39300
C1056       C  0.82146340  0.68554306  0.16717096     0.36200
C1057       C  0.73604581  0.62917823  0.15331761     0.36900
C1058       C  0.79526111  0.74464138  0.12241331     0.40200
N1059       N  0.78525651  0.57074240  0.10143114    -0.37900
N1060       N  0.75029256  0.61903858  0.09168611    -0.39500
N1061       N  0.86651066  0.66071817  0.18579005    -0.37200
N1062       N  0.82710544  0.70456873  0.17843012    -0.39600
N1063       N  0.84210210  0.71967292  0.10864822    -0.39400
N1064       N  0.80811907  0.76842909  0.11707589    -0.37000
N1065       N  0.68911066  0.65266461  0.16765703    -0.38100
N1066       N  0.72480428  0.60623297  0.16041036    -0.39700
C1067       C  0.91033144  0.27370052  0.14534252    -0.04700
C1068       C  0.89036424  0.24858297  0.13431218     0.09500
C1069       C  0.90005666  0.23333822  0.12246801    -0.02100
C1070       C  0.92958475  0.24277095  0.12207501    -0.00300
C1071       C  0.94981861  0.26817737  0.13292505    -0.03900
C1072       C  0.93994080  0.28335634  0.14483658     0.03100
C1073       C  0.85884317  0.23670017  0.13696225     0.09900
C1074       C  0.87942726  0.20738282  0.11126131     0.35800
C1075       C  0.95943106  0.30694426  0.15855479     0.39200
C1076       C  0.84379517  0.24357580  0.12213167    -0.04300
C1077       C  0.81438938  0.23368136  0.12547453     0.02800
C1078       C  0.79984179  0.21668651  0.14373160    -0.03900
C1079       C  0.81488937  0.20883704  0.15805818    -0.00100
C1080       C  0.84428637  0.21906371  0.15476343    -0.02700
C1081       C  0.85890867  0.26144130  0.10370418     0.36600
C1082       C  0.80018688  0.18983852  0.17611249     0.40200
C1083       C  0.79965836  0.24213826  0.11056268     0.39300
C1084       C  0.85982002  0.21184384  0.16993200     0.36200
C1085       C  0.90009275  0.28881093  0.15806319     0.36900
C1086       C  0.93889525  0.22549246  0.11128882     0.40200
N1087       N  0.78796809  0.24890399  0.09860858    -0.37900
N1088       N  0.87111349  0.27570428  0.08904068    -0.39500
N1089       N  0.78851573  0.17477417  0.19054461    -0.37200
N1090       N  0.87225206  0.20620397  0.18205985    -0.39600
N1091       N  0.86294913  0.18670191  0.10230469    -0.39400
N1092       N  0.94630364  0.21162628  0.10280053    -0.37000
N1093       N  0.97404039  0.32538924  0.17015158    -0.38100
N1094       N  0.89179959  0.30069427  0.16826239    -0.39700
C1095       C  0.65714824  0.75901954  0.15907940    -0.04700
C1096       C  0.65244029  0.76768107  0.13893845     0.09500
C1097       C  0.66729182  0.76680131  0.12072574    -0.02100
C1098       C  0.68726050  0.75780984  0.12269262    -0.00300
C1099       C  0.69234260  0.74946285  0.14293000    -0.03900
C1100       C  0.67749970  0.75064279  0.16119875     0.03100
C1101       C  0.63417546  0.78066355  0.13761813     0.09900
C1102       C  0.66285763  0.77634623  0.10012932     0.35800
C1103       C  0.68370317  0.74406771  0.18238947     0.39200
C1104       C  0.64635516  0.80988591  0.14275135    -0.04300
C1105       C  0.62867501  0.82152139  0.14449046     0.02800
C1106       C  0.59874941  0.80403241  0.14097273    -0.03900
C1107       C  0.58679317  0.77525683  0.13464876    -0.00100
C1108       C  0.60449409  0.76353519  0.13302646    -0.02700
C1109       C  0.67698773  0.82767241  0.14700758     0.36600
C1110       C  0.55615726  0.75755437  0.13050965     0.40200
C1111       C  0.64109580  0.85126334  0.15067341     0.39300
C1112       C  0.59211186  0.73364660  0.12742174     0.36200
C1113       C  0.64144747  0.75945632  0.17775489     0.36900
C1114       C  0.70446961  0.75997338  0.10425057     0.40200
N1115       N  0.65092754  0.87493793  0.15569636    -0.37900
N1116       N  0.70142539  0.84174994  0.15041302    -0.39500
N1117       N  0.53169954  0.74350981  0.12717337    -0.37200
N1118       N  0.58230220  0.70978667  0.12296759    -0.39600
N1119       N  0.65935649  0.78403494  0.08371196    -0.39400
N1120       N  0.71820664  0.76245608  0.08930938    -0.37000
N1121       N  0.68866903  0.73894310  0.19931638    -0.38100
N1122       N  0.62880333  0.75977280  0.19257049    -0.39700
C1123       C  0.46595310  0.24525158  0.26389488    -0.04700
C1124       C  0.45858243  0.26434918  0.25507614     0.09500
C1125       C  0.45536895  0.28303688  0.26869961    -0.02100
C1126       C  0.45725165  0.28109494  0.29120770    -0.00300
C1127       C  0.46270059  0.26052840  0.30022020    -0.03900
C1128       C  0.46816039  0.24342692  0.28633992     0.03100
C1129       C  0.45188840  0.26294006  0.23160707     0.09900
C1130       C  0.44925013  0.30368992  0.25950242     0.35800
C1131       C  0.47584204  0.22369171  0.29512616     0.39200
C1132       C  0.42328189  0.24510759  0.22451030    -0.04300
C1133       C  0.41689991  0.24176409  0.20235032     0.02800
C1134       C  0.43919378  0.25632831  0.18698028    -0.03900
C1135       C  0.46786159  0.27459791  0.19426440    -0.00100
C1136       C  0.47407089  0.27799064  0.21647328    -0.02700
C1137       C  0.40037632  0.23007334  0.24016284     0.36600
C1138       C  0.49132430  0.28896576  0.17898559     0.40200
C1139       C  0.38719473  0.22362336  0.19558876     0.39300
C1140       C  0.50336253  0.29683362  0.22385467     0.36200
C1141       C  0.47039433  0.22683199  0.24979245     0.36900
C1142       C  0.45174080  0.29908779  0.30494761     0.40200
N1143       N  0.36340694  0.20897851  0.19045875    -0.37900
N1144       N  0.38220133  0.21821374  0.25271908    -0.39500
N1145       N  0.51006760  0.30037860  0.16680835    -0.37200
N1146       N  0.52669921  0.31192039  0.22980184    -0.39600
N1147       N  0.44445887  0.32023889  0.25216988    -0.39400
N1148       N  0.44735987  0.31346922  0.31589214    -0.37000
N1149       N  0.48197910  0.20793943  0.30208833    -0.38100
N1150       N  0.47394328  0.21222551  0.23845334    -0.39700
C1151       C  0.49838228  0.33099000  0.39876322    -0.04700
C1152       C  0.47681610  0.33745501  0.40261199     0.09500
C1153       C  0.44985851  0.32134179  0.39232702    -0.02100
C1154       C  0.44457295  0.29909382  0.37813463    -0.00300
C1155       C  0.46611741  0.29264361  0.37428036    -0.03900
C1156       C  0.49304256  0.30862203  0.38458900     0.03100
C1157       C  0.48264607  0.36190556  0.41690411     0.09900
C1158       C  0.42764999  0.32789807  0.39622358     0.35800
C1159       C  0.51513523  0.30191512  0.38067144     0.39200
C1160       C  0.49699742  0.39006790  0.40868151    -0.04300
C1161       C  0.50104118  0.41305562  0.42162202     0.02800
C1162       C  0.49046252  0.40804615  0.44305717    -0.03900
C1163       C  0.47594981  0.37950117  0.45115916    -0.00100
C1164       C  0.47242631  0.35672361  0.43820326    -0.02700
C1165       C  0.50724589  0.39523156  0.38665295     0.36600
C1166       C  0.46314830  0.37298553  0.47242910     0.40200
C1167       C  0.51629016  0.44180360  0.41264546     0.39300
C1168       C  0.45783874  0.32770108  0.44666179     0.36200
C1169       C  0.52602182  0.34740084  0.40940444     0.36900
C1170       C  0.41719657  0.28327074  0.36700680     0.40200
N1171       N  0.52832044  0.46463700  0.40531003    -0.37900
N1172       N  0.51535120  0.39915836  0.36907802    -0.39500
N1173       N  0.45281328  0.36769143  0.48934927    -0.37200
N1174       N  0.44621732  0.30454310  0.45337439    -0.39600
N1175       N  0.40993073  0.33310808  0.39940996    -0.39400
N1176       N  0.39547958  0.27066074  0.35798785    -0.37000
N1177       N  0.53274172  0.29653108  0.37752748    -0.38100
N1178       N  0.54808202  0.36054606  0.41789816    -0.39700
C1179       C  0.25269375  0.42853126  0.22105772    -0.04700
C1180       C  0.27271227  0.45318674  0.23253378     0.09500
C1181       C  0.29230011  0.47846597  0.22137769    -0.02100
C1182       C  0.29093862  0.47958119  0.19881088    -0.00300
C1183       C  0.27012339  0.45524537  0.18732132    -0.03900
C1184       C  0.25151889  0.42945387  0.19850301     0.03100
C1185       C  0.27174327  0.45291672  0.25647202     0.09900
C1186       C  0.31347912  0.50344388  0.23324542     0.35800
C1187       C  0.23140023  0.40368683  0.18682174     0.39200
C1188       C  0.28528106  0.44128883  0.26844516    -0.04300
C1189       C  0.28177557  0.43844949  0.29093094     0.02800
C1190       C  0.26486457  0.44745574  0.30145583    -0.03900
C1191       C  0.25272222  0.46058168  0.28955255    -0.00100
C1192       C  0.25590812  0.46303957  0.26709212    -0.02700
C1193       C  0.30225192  0.43170411  0.25749522     0.36600
C1194       C  0.23725779  0.47191992  0.30049075     0.40200
C1195       C  0.29449965  0.42513055  0.30306327     0.39300
C1196       C  0.24227422  0.47532186  0.25479145     0.36200
C1197       C  0.23292721  0.40236172  0.23256813     0.36900
C1198       C  0.31003767  0.50618274  0.18756422     0.40200
N1199       N  0.30464733  0.41450076  0.31274878    -0.37900
N1200       N  0.31578960  0.42409909  0.24869107    -0.39500
N1201       N  0.22510303  0.48109475  0.30929201    -0.37200
N1202       N  0.23138487  0.48507092  0.24494265    -0.39600
N1203       N  0.33037846  0.52330472  0.24278300    -0.39400
N1204       N  0.32522258  0.52741032  0.17857166    -0.37000
N1205       N  0.21539905  0.38314525  0.17749766    -0.38100
N1206       N  0.21721700  0.38153124  0.24180377    -0.39700
C1207       C  0.38105279  0.50125410  0.43372954    -0.04700
C1208       C  0.37150927  0.48258070  0.41599660     0.09500
C1209       C  0.38611448  0.46856618  0.41026323    -0.02100
C1210       C  0.40902810  0.47171237  0.42297321    -0.00300
C1211       C  0.41788887  0.48937864  0.44149647    -0.03900
C1212       C  0.40429160  0.50484587  0.44636138     0.03100
C1213       C  0.34497953  0.47602016  0.40391140     0.09900
C1214       C  0.37714583  0.45048339  0.39133213     0.35800
C1215       C  0.41463996  0.52509440  0.46398133     0.39200
C1216       C  0.34661366  0.49343642  0.38661319    -0.04300
C1217       C  0.32240671  0.48478475  0.37334949     0.02800
C1218       C  0.29646923  0.45808723  0.37693976    -0.03900
C1219       C  0.29442979  0.44174974  0.39536439    -0.00100
C1220       C  0.31856147  0.45087299  0.40879872    -0.02700
C1221       C  0.37346351  0.52002311  0.38223823     0.36600
C1222       C  0.26810664  0.41487511  0.40023344     0.40200
C1223       C  0.32430095  0.50373915  0.35619496     0.39300
C1224       C  0.31654772  0.43399041  0.42748977     0.36200
C1225       C  0.36673751  0.51658091  0.43900368     0.36900
C1226       C  0.42254216  0.45570345  0.41728247     0.40200
N1227       N  0.32582923  0.51887408  0.34252898    -0.37900
N1228       N  0.39485744  0.54127183  0.37877613    -0.39500
N1229       N  0.24714069  0.39347373  0.40427145    -0.37200
N1230       N  0.31505273  0.42067180  0.44245150    -0.39600
N1231       N  0.36996447  0.43616029  0.37619717    -0.39400
N1232       N  0.43330028  0.44295789  0.41265213    -0.37000
N1233       N  0.42297099  0.54136744  0.47796846    -0.38100
N1234       N  0.35531266  0.52884669  0.44310577    -0.39700
C1235       C  0.32006540  0.08897435  0.37543774    -0.04700
C1236       C  0.34759019  0.10012065  0.36637705     0.09500
C1237       C  0.35505569  0.08142015  0.35706134    -0.02100
C1238       C  0.33464323  0.05175607  0.35590767    -0.00300
C1239       C  0.30681248  0.04041644  0.36474819    -0.03900
C1240       C  0.29966289  0.05930296  0.37450893     0.03100
C1241       C  0.36750623  0.13178654  0.36404395     0.09900
C1242       C  0.38341951  0.09305438  0.34763417     0.35800
C1243       C  0.27097104  0.04844512  0.38303011     0.39200
C1244       C  0.39012102  0.14726619  0.37875141    -0.04300
C1245       C  0.41071309  0.17652343  0.37496810     0.02800
C1246       C  0.40875601  0.19033104  0.35633392    -0.03900
C1247       C  0.38481209  0.17513225  0.34246667    -0.00100
C1248       C  0.36443997  0.14596841  0.34625225    -0.02700
C1249       C  0.39228073  0.13285883  0.39759741     0.36600
C1250       C  0.38063307  0.18958655  0.32450371     0.40200
C1251       C  0.43429751  0.19202330  0.38993008     0.39300
C1252       C  0.34039906  0.13032387  0.33164060     0.36200
C1253       C  0.31249366  0.10829365  0.38505361     0.36900
C1254       C  0.34159049  0.03382911  0.34347732     0.40200
N1255       N  0.45300308  0.20438747  0.40196766    -0.37900
N1256       N  0.39384224  0.12126577  0.41264255    -0.39500
N1257       N  0.37734608  0.20116926  0.31021256    -0.37200
N1258       N  0.32116790  0.11783093  0.32005130    -0.39600
N1259       N  0.40604663  0.10241278  0.34013214    -0.39400
N1260       N  0.34793732  0.02055391  0.33299733    -0.37000
N1261       N  0.24808229  0.03982633  0.38980224    -0.38100
N1262       N  0.30649093  0.12375890  0.39267911    -0.39700
C1263       C  0.18731163  0.70582677  0.26844847    -0.04700
C1264       C  0.21316849  0.72699342  0.25865572     0.09500
C1265       C  0.23682365  0.74576963  0.27157849    -0.02100
C1266       C  0.23406536  0.74472240  0.29415131    -0.00300
C1267       C  0.20746673  0.72487649  0.30407182    -0.03900
C1268       C  0.18436252  0.70476513  0.29104975     0.03100
C1269       C  0.21459934  0.73143729  0.23479627     0.09900
C1270       C  0.26381675  0.76677367  0.26152483     0.35800
C1271       C  0.15687373  0.68415392  0.30063496     0.39200
C1272       C  0.20563281  0.74925915  0.22588861    -0.04300
C1273       C  0.20714142  0.75404572  0.20352104     0.02800
C1274       C  0.21800029  0.74122667  0.18974585    -0.03900
C1275       C  0.22689570  0.72326673  0.19877792    -0.00100
C1276       C  0.22515257  0.71839863  0.22120236    -0.02700
C1277       C  0.19477450  0.76269715  0.23988232     0.36600
C1278       C  0.23869273  0.71043932  0.18512712     0.40200
C1279       C  0.19656024  0.77149266  0.19477953     0.39300
C1280       C  0.23434845  0.70007867  0.23038911     0.36200
C1281       C  0.16340050  0.68575393  0.25510519     0.36900
C1282       C  0.25873867  0.76438752  0.30706529     0.40200
N1283       N  0.18815463  0.78545349  0.18786644    -0.37900
N1284       N  0.18613545  0.77336554  0.25109797    -0.39500
N1285       N  0.24811246  0.70021760  0.17422009    -0.37200
N1286       N  0.24167330  0.68546156  0.23776497    -0.39600
N1287       N  0.28534065  0.78346654  0.25347300    -0.39400
N1288       N  0.27863444  0.78024910  0.31710914    -0.37000
N1289       N  0.13490726  0.66769974  0.30824677    -0.38100
N1290       N  0.14440669  0.66974811  0.24438431    -0.39700
C1291       C  0.20045742  0.82255520  0.36780524    -0.04700
C1292       C  0.22990116  0.84418988  0.36737999     0.09500
C1293       C  0.25098892  0.83663342  0.36669690    -0.02100
C1294       C  0.24260161  0.80760425  0.36482654    -0.00300
C1295       C  0.21317935  0.78617392  0.36312157    -0.03900
C1296       C  0.19207071  0.79354183  0.36567007     0.03100
C1297       C  0.23850612  0.87493437  0.36619904     0.09900
C1298       C  0.28125857  0.85882264  0.36732635     0.35800
C1299       C  0.16175931  0.77150470  0.36534346     0.39200
C1300       C  0.24331807  0.89092116  0.38507979    -0.04300
C1301       C  0.24962637  0.91941442  0.38386393     0.02800
C1302       C  0.25244358  0.93250090  0.36364707    -0.03900
C1303       C  0.24724935  0.91616190  0.34471467    -0.00100
C1304       C  0.24042642  0.88756583  0.34602969    -0.02700
C1305       C  0.24143420  0.87780268  0.40576770     0.36600
C1306       C  0.24931868  0.92879706  0.32374009     0.40200
C1307       C  0.25091621  0.93418876  0.40346902     0.39300
C1308       C  0.23538370  0.87102029  0.32658416     0.36200
C1309       C  0.17885773  0.83036199  0.36973198     0.36900
C1310       C  0.26414554  0.79961787  0.36501548     0.40200
N1311       N  0.25126759  0.94515361  0.41941732    -0.37900
N1312       N  0.24003474  0.86727863  0.42223237    -0.39500
N1313       N  0.25086817  0.93880045  0.30701423    -0.37200
N1314       N  0.23138225  0.85781373  0.31109629    -0.39600
N1315       N  0.30539917  0.87658266  0.36783344    -0.39400
N1316       N  0.28124932  0.79312987  0.36554396    -0.37000
N1317       N  0.13748096  0.75414697  0.36526839    -0.38100
N1318       N  0.16174848  0.83674418  0.37132090    -0.39700
C1319       C  0.81097495  0.55170003  0.22885624    -0.04700
C1320       C  0.83631726  0.56039852  0.24064237     0.09500
C1321       C  0.86259133  0.57032487  0.22976941    -0.02100
C1322       C  0.86405959  0.57428332  0.20727802    -0.00300
C1323       C  0.83906362  0.56793282  0.19566815    -0.03900
C1324       C  0.81230058  0.55534183  0.20643169     0.03100
C1325       C  0.83552091  0.56192314  0.26453547     0.09900
C1326       C  0.88813994  0.57708500  0.24186472     0.35800
C1327       C  0.78608349  0.54635474  0.19442844     0.39200
C1328       C  0.82818278  0.53773686  0.27730538    -0.04300
C1329       C  0.82420505  0.53842305  0.29963551     0.02800
C1330       C  0.82724628  0.56329953  0.30924861    -0.03900
C1331       C  0.83550793  0.58784096  0.29641800    -0.00100
C1332       C  0.83971882  0.58712927  0.27417588    -0.02700
C1333       C  0.82408598  0.51196181  0.26729961     0.36600
C1334       C  0.84015006  0.61407707  0.30605053     0.40200
C1335       C  0.81584486  0.51308179  0.31250100     0.39300
C1336       C  0.84796732  0.61225464  0.26104004     0.36200
C1337       C  0.78364536  0.53979015  0.23997710     0.36900
C1338       C  0.89155978  0.58649503  0.19638800     0.40200
N1339       N  0.80923313  0.49288355  0.32277302    -0.37900
N1340       N  0.82079371  0.49141457  0.25925387    -0.39500
N1341       N  0.84373175  0.63494569  0.31372419    -0.37200
N1342       N  0.85459556  0.63226531  0.25053234    -0.39600
N1343       N  0.90843506  0.58223378  0.25155102    -0.39400
N1344       N  0.91352687  0.59624597  0.18772204    -0.37000
N1345       N  0.76521081  0.53918451  0.18481076    -0.38100
N1346       N  0.76189343  0.53022070  0.24892172    -0.39700
C1347       C  0.58975283  0.60597463  0.41338160    -0.04700
C1348       C  0.61910601  0.61785754  0.41824023     0.09500
C1349       C  0.62733812  0.60631369  0.43504097    -0.02100
C1350       C  0.60620244  0.58355414  0.44753826    -0.00300
C1351       C  0.57668583  0.57123084  0.44255059    -0.03900
C1352       C  0.56855870  0.58240408  0.42526441     0.03100
C1353       C  0.64157585  0.64274832  0.40571031     0.09900
C1354       C  0.65766038  0.61769178  0.43921598     0.35800
C1355       C  0.53837910  0.57050128  0.42019670     0.39200
C1356       C  0.65501459  0.67050697  0.41445248    -0.04300
C1357       C  0.67780508  0.69373668  0.40336393     0.02800
C1358       C  0.68632286  0.68959659  0.38290536    -0.03900
C1359       C  0.67188263  0.66179004  0.37386113    -0.00100
C1360       C  0.65000365  0.63838999  0.38543926    -0.02700
C1361       C  0.64541631  0.67504350  0.43497802     0.36600
C1362       C  0.67849579  0.65708495  0.35233347     0.40200
C1363       C  0.69358593  0.72136684  0.41381742     0.39300
C1364       C  0.63614932  0.60967452  0.37658882     0.36200
C1365       C  0.58145846  0.61834358  0.39630527     0.36900
C1366       C  0.61501340  0.57288116  0.46546150     0.40200
N1367       N  0.70601577  0.74293907  0.42288031    -0.37900
N1368       N  0.63762888  0.67862976  0.45129092    -0.39500
N1369       N  0.68264305  0.65242201  0.33503814    -0.37200
N1370       N  0.62503503  0.58673733  0.36961008    -0.39600
N1371       N  0.68185255  0.62669273  0.44237948    -0.39400
N1372       N  0.62218844  0.56476124  0.47991940    -0.37000
N1373       N  0.51431794  0.56096261  0.41611955    -0.38100
N1374       N  0.57496646  0.62831450  0.38268630    -0.39700
C1375       C  0.75312016  0.66257709  0.38984991    -0.04700
C1376       C  0.75931427  0.65231167  0.37116676     0.09500
C1377       C  0.75718873  0.66249588  0.35086081    -0.02100
C1378       C  0.74919625  0.68310398  0.34920563    -0.00300
C1379       C  0.74287774  0.69350768  0.36790158    -0.03900
C1380       C  0.74523425  0.68337092  0.38827273     0.03100
C1381       C  0.77003589  0.63217951  0.37262177     0.09900
C1382       C  0.76374974  0.65201333  0.33164030     0.35800
C1383       C  0.74169778  0.69567561  0.40771395     0.39200
C1384       C  0.75107976  0.60259390  0.36907192    -0.04300
C1385       C  0.76211313  0.58450084  0.36640173     0.02800
C1386       C  0.79200957  0.59582291  0.36793731    -0.03900
C1387       C  0.81069421  0.62496296  0.37317745    -0.00100
C1388       C  0.79978856  0.64322673  0.37512376    -0.02700
C1389       C  0.72039032  0.59111018  0.36734707     0.36600
C1390       C  0.84135564  0.63646689  0.37539518     0.40200
C1391       C  0.74286629  0.55439098  0.36152624     0.39300
C1392       C  0.81934547  0.67372720  0.37836127     0.36200
C1393       C  0.75550334  0.65211918  0.41070488     0.36900
C1394       C  0.74721025  0.69333722  0.32811425     0.40200
N1395       N  0.72757753  0.53035870  0.35760791    -0.37900
N1396       N  0.69590745  0.58202929  0.36602604    -0.39500
N1397       N  0.86578219  0.64553886  0.37723603    -0.37200
N1398       N  0.83490308  0.69810435  0.38076162    -0.39600
N1399       N  0.76900842  0.64356692  0.31638638    -0.39400
N1400       N  0.74547804  0.70134521  0.31128276    -0.37000
N1401       N  0.73941305  0.70537118  0.42352313    -0.38100
N1402       N  0.75743231  0.64375427  0.42733026    -0.39700
C1403       C  0.70230837  0.19736657  0.28018159    -0.04700
C1404       C  0.71586763  0.18762250  0.26633466     0.09500
C1405       C  0.72954634  0.17383633  0.27485913    -0.02100
C1406       C  0.73102138  0.17114601  0.29721483    -0.00300
C1407       C  0.71911234  0.18257393  0.31121248    -0.03900
C1408       C  0.70389664  0.19484032  0.30263595     0.03100
C1409       C  0.71791636  0.19361938  0.24280955     0.09900
C1410       C  0.74280073  0.16311040  0.26053313     0.35800
C1411       C  0.69106463  0.20607200  0.31685919     0.39200
C1412       C  0.74293937  0.21771888  0.23452676    -0.04300
C1413       C  0.74753226  0.22117696  0.21220197     0.02800
C1414       C  0.72729009  0.20010947  0.19788866    -0.03900
C1415       C  0.70121591  0.17687740  0.20632027    -0.00100
C1416       C  0.69659450  0.17382375  0.22872931    -0.02700
C1417       C  0.76456487  0.23839743  0.24914388     0.36600
C1418       C  0.67976633  0.15500822  0.19229040     0.40200
C1419       C  0.77340930  0.24641985  0.20413759     0.39300
C1420       C  0.67040952  0.14964686  0.23745159     0.36200
C1421       C  0.68747899  0.21069158  0.27127621     0.36900
C1422       C  0.74462030  0.15636653  0.30579790     0.40200
N1423       N  0.79414644  0.26647359  0.19777438    -0.37900
N1424       N  0.78180596  0.25476084  0.26084642    -0.39500
N1425       N  0.66256837  0.13750052  0.18117546    -0.37200
N1426       N  0.64951936  0.13042961  0.24447126    -0.39600
N1427       N  0.75340032  0.15467078  0.24904212    -0.39400
N1428       N  0.75540081  0.14454738  0.31267538    -0.37000
N1429       N  0.68080821  0.21500256  0.32822782    -0.38100
N1430       N  0.67559157  0.22125663  0.26412655    -0.39700
C1431       C  0.52449080  0.80303276  0.27645393    -0.04700
C1432       C  0.54117538  0.83003295  0.26644491     0.09500
C1433       C  0.55694633  0.85483968  0.27911844    -0.02100
C1434       C  0.55822143  0.85234829  0.30159235    -0.00300
C1435       C  0.54383772  0.82497474  0.31136407    -0.03900
C1436       C  0.52609951  0.80045062  0.29885830     0.03100
C1437       C  0.54663659  0.83155676  0.24282407     0.09900
C1438       C  0.57307903  0.88271070  0.26881772     0.35800
C1439       C  0.51024213  0.77245037  0.30900758     0.39200
C1440       C  0.52833086  0.83364657  0.22794391    -0.04300
C1441       C  0.53304580  0.83322733  0.20564703     0.02800
C1442       C  0.55699515  0.83196386  0.19809617    -0.03900
C1443       C  0.57614832  0.83143962  0.21334686    -0.00100
C1444       C  0.57041359  0.83032152  0.23547227    -0.02700
C1445       C  0.50456426  0.83605549  0.23565816     0.36600
C1446       C  0.60243153  0.83294448  0.20662130     0.40200
C1447       C  0.51249030  0.83298244  0.19068193     0.39300
C1448       C  0.58885480  0.82745746  0.25085932     0.36200
C1449       C  0.50673994  0.77778441  0.26351933     0.36900
C1450       C  0.57597863  0.87772246  0.31441664     0.40200
N1451       N  0.49601850  0.83273158  0.17878172    -0.37900
N1452       N  0.48570977  0.83816382  0.24182511    -0.39500
N1453       N  0.62350093  0.83418374  0.20155700    -0.37200
N1454       N  0.60331187  0.82496244  0.26320065    -0.39600
N1455       N  0.58590293  0.90489810  0.26051264    -0.39400
N1456       N  0.59017967  0.89797048  0.32464156    -0.37000
N1457       N  0.49768628  0.75014798  0.31716843    -0.38100
N1458       N  0.49244760  0.75769063  0.25317517    -0.39700
C1459       C  0.63476814  0.79461258  0.35173598    -0.04700
C1460       C  0.62949799  0.77508693  0.36850375     0.09500
C1461       C  0.60631408  0.76696023  0.38270367    -0.02100
C1462       C  0.58812861  0.77802733  0.37995646    -0.00300
C1463       C  0.59300010  0.79722229  0.36285517    -0.03900
C1464       C  0.61682539  0.80581442  0.34898589     0.03100
C1465       C  0.64866828  0.76321087  0.37079376     0.09900
C1466       C  0.60107129  0.74694590  0.39997000     0.35800
C1467       C  0.62360332  0.82687239  0.33216272     0.39200
C1468       C  0.67588806  0.77985818  0.38050423    -0.04300
C1469       C  0.69621740  0.77133827  0.37917376     0.02800
C1470       C  0.68934929  0.74581201  0.36826757    -0.03900
C1471       C  0.66188209  0.72907677  0.35870859    -0.00100
C1472       C  0.64140874  0.73739970  0.36046417    -0.02700
C1473       C  0.68324324  0.80633826  0.39124244     0.36600
C1474       C  0.65555987  0.70523617  0.34490299     0.40200
C1475       C  0.72452096  0.78940462  0.38858116     0.39300
C1476       C  0.61319756  0.72007446  0.35075643     0.36200
C1477       C  0.65873300  0.80303298  0.33716893     0.36900
C1478       C  0.56395972  0.76893113  0.39438302     0.40200
N1479       N  0.74708322  0.80385438  0.39607908    -0.37900
N1480       N  0.68904384  0.82747363  0.39975223    -0.39500
N1481       N  0.64986857  0.68654378  0.33328883    -0.37200
N1482       N  0.59064849  0.70618844  0.34310446    -0.39600
N1483       N  0.59691065  0.73091760  0.41370432    -0.39400
N1484       N  0.54472753  0.76173631  0.40594793    -0.37000
N1485       N  0.62907214  0.84363785  0.31872694    -0.38100
N1486       N  0.67787321  0.80964856  0.32563102    -0.39700
C1487       C  0.08262526  0.34565289  0.35887822    -0.04700
C1488       C  0.10185292  0.34078041  0.37056930     0.09500
C1489       C  0.09121050  0.31526588  0.38250068    -0.02100
C1490       C  0.06161934  0.29410527  0.38196787    -0.00300
C1491       C  0.04225476  0.29868976  0.36994797    -0.03900
C1492       C  0.05308650  0.32437616  0.35804654     0.03100
C1493       C  0.13356242  0.36008169  0.36714381     0.09900
C1494       C  0.11098742  0.31050798  0.39480164     0.35800
C1495       C  0.03496827  0.32752308  0.34265274     0.39200
C1496       C  0.14973552  0.38552016  0.37905387    -0.04300
C1497       C  0.17924578  0.40446416  0.37443083     0.02800
C1498       C  0.19271954  0.39795101  0.35788128    -0.03900
C1499       C  0.17649297  0.37195215  0.34638529    -0.00100
C1500       C  0.14707159  0.35323549  0.35096199    -0.02700
C1501       C  0.13578624  0.39239188  0.39574884     0.36600
C1502       C  0.18997879  0.36413103  0.32989602     0.40200
C1503       C  0.19529919  0.43131149  0.38597193     0.39300
C1504       C  0.13037545  0.32702355  0.33870011     0.36200
C1505       C  0.09360032  0.37214100  0.34685220     0.36900
C1506       C  0.05144924  0.26704818  0.39298177     0.40200
N1507       N  0.20816397  0.45280145  0.39510177    -0.37900
N1508       N  0.12462017  0.39786683  0.40906078    -0.39500
N1509       N  0.20059369  0.35785155  0.31667632    -0.37200
N1510       N  0.11691663  0.30611014  0.32899163    -0.39600
N1511       N  0.12679316  0.30678517  0.40464668    -0.39400
N1512       N  0.04340252  0.24540866  0.40166422    -0.37000
N1513       N  0.02151673  0.33043582  0.32964435    -0.38100
N1514       N  0.10241637  0.39336262  0.33738594    -0.39700
C1515       C  0.83703485  0.24009047  0.37194538    -0.04700
C1516       C  0.84461043  0.21952244  0.37620412     0.09500
C1517       C  0.82286776  0.19042105  0.37880233    -0.02100
C1518       C  0.79374397  0.18163907  0.37562246    -0.00300
C1519       C  0.78636277  0.20198828  0.36984808    -0.03900
C1520       C  0.80796904  0.23131629  0.36858878     0.03100
C1521       C  0.87547145  0.22798082  0.37503793     0.09900
C1522       C  0.83064655  0.16941842  0.38385312     0.35800
C1523       C  0.80030455  0.25235657  0.36333471     0.39200
C1524       C  0.89253590  0.23538791  0.39367855    -0.04300
C1525       C  0.92153235  0.24279780  0.39226321     0.02800
C1526       C  0.93397014  0.24414490  0.37201280    -0.03900
C1527       C  0.91658972  0.23648071  0.35337065    -0.00100
C1528       C  0.88746901  0.22826031  0.35493279    -0.02700
C1529       C  0.88003920  0.23497603  0.41432840     0.36600
C1530       C  0.92864213  0.23719886  0.33242692     0.40200
C1531       C  0.93751221  0.24668817  0.41183472     0.39300
C1532       C  0.86959900  0.21976886  0.33582576     0.36200
C1533       C  0.85935909  0.27016001  0.37034362     0.36900
C1534       C  0.77159390  0.15146273  0.37687193     0.40200
N1535       N  0.94930613  0.24901743  0.42785459    -0.37900
N1536       N  0.87006138  0.23470673  0.43079148    -0.39500
N1537       N  0.93822751  0.23780873  0.31571502    -0.37200
N1538       N  0.85519836  0.21285913  0.32067788    -0.39600
N1539       N  0.83687583  0.15268335  0.38792452    -0.39400
N1540       N  0.75387267  0.12740284  0.37777157    -0.37000
N1541       N  0.79412472  0.26908652  0.35910651    -0.38100
N1542       N  0.87728498  0.29412106  0.36916114    -0.39700
C1543       C  0.09984416  0.46726805  0.55363918    -0.04700
C1544       C  0.10381080  0.47749913  0.57490443     0.09500
C1545       C  0.08910686  0.49087902  0.58212126    -0.02100
C1546       C  0.07025605  0.49370092  0.56819694    -0.00300
C1547       C  0.06652687  0.48372410  0.54683100    -0.03900
C1548       C  0.08135706  0.47045159  0.53961839     0.03100
C1549       C  0.12282300  0.47320101  0.58981281     0.09900
C1550       C  0.09316210  0.50144076  0.60395753     0.35800
C1551       C  0.07776017  0.46023271  0.51768851     0.39200
C1552       C  0.15305287  0.49104955  0.58829197    -0.04300
C1553       C  0.17099367  0.48547157  0.60109835     0.02800
C1554       C  0.15877312  0.46258468  0.61596498    -0.03900
C1555       C  0.12853594  0.44525029  0.61794399    -0.00100
C1556       C  0.11060746  0.45032048  0.60470522    -0.02700
C1557       C  0.16559927  0.51525636  0.57362115     0.36600
C1558       C  0.11587969  0.42182799  0.63333022     0.40200
C1559       C  0.20203714  0.50346248  0.59917574     0.39300
C1560       C  0.07956002  0.43172965  0.60611257     0.36200
C1561       C  0.11454746  0.45306803  0.54631449     0.36900
C1562       C  0.05336540  0.50524287  0.57625741     0.40200
N1563       N  0.22681560  0.51775749  0.59762923    -0.37900
N1564       N  0.17551503  0.53462425  0.56196128    -0.39500
N1565       N  0.10583359  0.40319956  0.64564860    -0.37200
N1566       N  0.05478071  0.41694343  0.60717038    -0.39600
N1567       N  0.09636160  0.50986394  0.62138164    -0.39400
N1568       N  0.03959082  0.51405476  0.58278706    -0.37000
N1569       N  0.07482728  0.45206456  0.50020193    -0.38100
N1570       N  0.12632837  0.44175548  0.54055475    -0.39700
C1571       C  0.83188934  0.32531401  0.59454094    -0.04700
C1572       C  0.86225625  0.33971905  0.59378008     0.09500
C1573       C  0.87701413  0.33256923  0.60879165    -0.02100
C1574       C  0.86149842  0.31068119  0.62405977    -0.00300
C1575       C  0.83120053  0.29648299  0.62490541    -0.03900
C1576       C  0.81640886  0.30381490  0.61012965     0.03100
C1577       C  0.87879947  0.36196719  0.57685367     0.09900
C1578       C  0.90822307  0.34786665  0.60855992     0.35800
C1579       C  0.78525132  0.28914590  0.61096251     0.39200
C1580       C  0.88370781  0.38984800  0.57887731    -0.04300
C1581       C  0.90062086  0.41122512  0.56352657     0.02800
C1582       C  0.91315086  0.40496596  0.54602370    -0.03900
C1583       C  0.90723713  0.37656624  0.54371683    -0.00100
C1584       C  0.89020923  0.35528531  0.55905870    -0.02700
C1585       C  0.87200618  0.39672177  0.59721568     0.36600
C1586       C  0.91830930  0.36889275  0.52542388     0.40200
C1587       C  0.90600703  0.43993441  0.56646485     0.39300
C1588       C  0.88464300  0.32641876  0.55671756     0.36200
C1589       C  0.81661975  0.33256505  0.57919885     0.36900
C1590       C  0.87661159  0.30199948  0.63841216     0.40200
N1591       N  0.91015885  0.46277718  0.56884257    -0.37900
N1592       N  0.86261945  0.40209795  0.61186284    -0.39500
N1593       N  0.92714345  0.36264390  0.51091202    -0.37200
N1594       N  0.88025478  0.30340908  0.55496195    -0.39600
N1595       N  0.93312787  0.36013350  0.60841296    -0.39400
N1596       N  0.88856383  0.29481234  0.64973261    -0.37000
N1597       N  0.76038886  0.27742488  0.61165906    -0.38100
N1598       N  0.80448986  0.33847432  0.56698909    -0.39700
C1599       C  0.10923285  0.62065370  0.44119679    -0.04700
C1600       C  0.11362705  0.61358133  0.42037805     0.09500
C1601       C  0.09960088  0.58460525  0.41421156    -0.02100
C1602       C  0.08025849  0.56279939  0.42840280    -0.00300
C1603       C  0.07464749  0.56977563  0.44907884    -0.03900
C1604       C  0.08981290  0.59897174  0.45548008     0.03100
C1605       C  0.13125036  0.63681286  0.40434830     0.09900
C1606       C  0.10472215  0.57732813  0.39297154     0.35800
C1607       C  0.08437869  0.60716032  0.47625661     0.39200
C1608       C  0.16093147  0.64747062  0.40176881    -0.04300
C1609       C  0.17747296  0.67015987  0.38721028     0.02800
C1610       C  0.16428476  0.68192399  0.37491204    -0.03900
C1611       C  0.13441576  0.67051740  0.37691910    -0.00100
C1612       C  0.11800222  0.64820146  0.39169674    -0.02700
C1613       C  0.17437946  0.63512900  0.41418151     0.36600
C1614       C  0.12051734  0.68163302  0.36363449     0.40200
C1615       C  0.20815713  0.68180251  0.38515793     0.39300
C1616       C  0.08742071  0.63699314  0.39403529     0.36200
C1617       C  0.12426039  0.65049013  0.44767921     0.36900
C1618       C  0.06610990  0.53319673  0.42142644     0.40200
N1619       N  0.23266227  0.69116914  0.38352329    -0.37900
N1620       N  0.18504240  0.62515069  0.42403443    -0.39500
N1621       N  0.10932094  0.69027785  0.35291577    -0.37200
N1622       N  0.06302380  0.62801189  0.39597506    -0.39600
N1623       N  0.10887594  0.57158719  0.37603396    -0.39400
N1624       N  0.05472677  0.50969001  0.41560280    -0.37000
N1625       N  0.08005607  0.61377647  0.49280139    -0.38100
N1626       N  0.13631232  0.67431127  0.45279998    -0.39700
C1627       C  0.88765969  0.49403576  0.42243876    -0.04700
C1628       C  0.89055851  0.52098068  0.42556316     0.09500
C1629       C  0.90862930  0.53928577  0.44195146    -0.02100
C1630       C  0.92414605  0.53090942  0.45495549    -0.00300
C1631       C  0.92130803  0.50397450  0.45182726    -0.03900
C1632       C  0.90313009  0.48558950  0.43550467     0.03100
C1633       C  0.87554164  0.53074520  0.41102580     0.09900
C1634       C  0.91168464  0.56703196  0.44508226     0.35800
C1635       C  0.90055549  0.45811724  0.43208623     0.39200
C1636       C  0.84621189  0.52105609  0.41427475    -0.04300
C1637       C  0.83220698  0.53066504  0.40069030     0.02800
C1638       C  0.84753943  0.54998138  0.38376314    -0.03900
C1639       C  0.87711838  0.56017730  0.38087967    -0.00100
C1640       C  0.89098308  0.55035230  0.39433993    -0.02700
C1641       C  0.83047269  0.50102530  0.43153564     0.36600
C1642       C  0.89358375  0.58155227  0.36451977     0.40200
C1643       C  0.80186177  0.52007145  0.40382322     0.39300
C1644       C  0.92116594  0.56030385  0.39099243     0.36200
C1645       C  0.86910256  0.47526017  0.40555620     0.36900
C1646       C  0.94449721  0.55082973  0.47058802     0.40200
N1647       N  0.77767032  0.51168090  0.40636119    -0.37900
N1648       N  0.81798070  0.48495507  0.44527514    -0.39500
N1649       N  0.90668505  0.59869916  0.35153713    -0.37200
N1650       N  0.94523502  0.56823196  0.38834543    -0.39600
N1651       N  0.91414495  0.58918373  0.44747063    -0.39400
N1652       N  0.96100081  0.56690848  0.48282036    -0.37000
N1653       N  0.89862670  0.43625461  0.42936150    -0.38100
N1654       N  0.85421633  0.46026995  0.39211660    -0.39700
C1655       C  0.01510277  0.39758268  0.42165348    -0.04700
C1656       C  0.98973027  0.37052891  0.41905442     0.09500
C1657       C  0.96411625  0.36450376  0.42944900    -0.02100
C1658       C  0.96398460  0.38533092  0.44265549    -0.00300
C1659       C  0.98953685  0.41211385  0.44568952    -0.03900
C1660       C  0.01508156  0.41823624  0.43512628     0.03100
C1661       C  0.99051464  0.34745294  0.40688439     0.09900
C1662       C  0.93810901  0.33658263  0.42690252     0.35800
C1663       C  0.04165143  0.44528157  0.43891894     0.39200
C1664       C  0.00149069  0.33198221  0.41687923    -0.04300
C1665       C  0.00128539  0.30938198  0.40597294     0.02800
C1666       C  0.98945833  0.30155999  0.38513816    -0.03900
C1667       C  0.97827650  0.31700550  0.37519359    -0.00100
C1668       C  0.97931581  0.34023876  0.38589771    -0.02700
C1669       C  0.01229445  0.33888869  0.43870853     0.36600
C1670       C  0.96590532  0.30931914  0.35390766     0.40200
C1671       C  0.01152561  0.29300137  0.41691956     0.39300
C1672       C  0.96900896  0.35687863  0.37534210     0.36200
C1673       C  0.04132154  0.40386869  0.41074891     0.36900
C1674       C  0.93758557  0.37923575  0.45313363     0.40200
N1675       N  0.01931606  0.28003436  0.42634446    -0.37900
N1676       N  0.02082883  0.34440929  0.45612947    -0.39500
N1677       N  0.95603380  0.30379514  0.33685829    -0.37200
N1678       N  0.96091885  0.37025894  0.36690192    -0.39600
N1679       N  0.91746436  0.31425726  0.42478608    -0.39400
N1680       N  0.91649486  0.37440034  0.46143715    -0.37000
N1681       N  0.06293715  0.46669951  0.44213681    -0.38100
N1682       N  0.06219297  0.40879123  0.40203042    -0.39700
C1683       C  0.01674383  0.60291672  0.57611573    -0.04700
C1684       C  0.99363154  0.60753421  0.57552999     0.09500
C1685       C  0.96986570  0.59062054  0.56211141    -0.02100
C1686       C  0.96921777  0.56921635  0.54911219    -0.00300
C1687       C  0.99281010  0.56488899  0.54911004    -0.03900
C1688       C  0.01654077  0.58190830  0.56288102     0.03100
C1689       C  0.99486643  0.63138499  0.58809034     0.09900
C1690       C  0.94625814  0.59576241  0.56144338     0.35800
C1691       C  0.04075774  0.57776598  0.56382711     0.39200
C1692       C  0.00838576  0.65907528  0.57909116    -0.04300
C1693       C  0.00696783  0.68100657  0.58964365     0.02800
C1694       C  0.99320843  0.67587996  0.60982878    -0.03900
C1695       C  0.97999207  0.64814478  0.61898142    -0.00100
C1696       C  0.98071458  0.62593355  0.60805732    -0.02700
C1697       C  0.02314747  0.66477817  0.55861379     0.36600
C1698       C  0.96538438  0.64217730  0.63945527     0.40200
C1699       C  0.01717426  0.70798583  0.57860958     0.39300
C1700       C  0.96668089  0.59731923  0.61718690     0.36200
C1701       C  0.04077368  0.61989172  0.59043258     0.36900
C1702       C  0.94441643  0.55238786  0.53538911     0.40200
N1703       N  0.02466178  0.72889958  0.56904647    -0.37900
N1704       N  0.03503674  0.66936441  0.54233993    -0.39500
N1705       N  0.95350909  0.63677771  0.65578446    -0.37200
N1706       N  0.95547419  0.57443655  0.62438989    -0.39600
N1707       N  0.92757036  0.60004173  0.56099131    -0.39400
N1708       N  0.92440441  0.53896890  0.52465504    -0.37000
N1709       N  0.06025689  0.57474484  0.56451719    -0.38100
N1710       N  0.05985965  0.63332916  0.60194225    -0.39700
C1711       C  0.88580995  0.34887624  0.89860455    -0.04700
C1712       C  0.87195962  0.35675626  0.91382413     0.09500
C1713       C  0.84159200  0.34150011  0.91483606    -0.02100
C1714       C  0.82519126  0.31816100  0.90097047    -0.00300
C1715       C  0.83907991  0.30976566  0.88626381    -0.03900
C1716       C  0.86941332  0.32521370  0.88502619     0.03100
C1717       C  0.88957264  0.38028836  0.92943837     0.09900
C1718       C  0.82727201  0.34956751  0.93036770     0.35800
C1719       C  0.88375553  0.31606543  0.87036714     0.39200
C1720       C  0.89328012  0.40760402  0.92674538    -0.04300
C1721       C  0.91123111  0.43012780  0.94086419     0.02800
C1722       C  0.92712164  0.42597802  0.95705074    -0.03900
C1723       C  0.92193042  0.39793507  0.96037653    -0.00100
C1724       C  0.90302222  0.37524337  0.94676832    -0.02700
C1725       C  0.87916013  0.41270098  0.90902927     0.36600
C1726       C  0.93539098  0.39197478  0.97810487     0.40200
C1727       C  0.91300458  0.45737447  0.93854025     0.39300
C1728       C  0.89742133  0.34653625  0.95045962     0.36200
C1729       C  0.91698811  0.36504791  0.89708542     0.36900
C1730       C  0.79398852  0.30282380  0.90168730     0.40200
N1731       N  0.91363023  0.47877117  0.93691441    -0.37900
N1732       N  0.86794266  0.41676440  0.89487155    -0.39500
N1733       N  0.94607706  0.38708828  0.99219553    -0.37200
N1734       N  0.89279407  0.32358173  0.95331872    -0.39600
N1735       N  0.81584395  0.35605757  0.94272884    -0.39400
N1736       N  0.76908864  0.29054875  0.90211504    -0.37000
N1737       N  0.89517046  0.30862899  0.85877544    -0.38100
N1738       N  0.94186015  0.37801482  0.89591594    -0.39700
C1739       C  0.10188524  0.46777516  0.93911405    -0.04700
C1740       C  0.11474584  0.48432739  0.92053033     0.09500
C1741       C  0.11284832  0.50868369  0.91649868    -0.02100
C1742       C  0.09739683  0.51602438  0.93065704    -0.00300
C1743       C  0.08332072  0.49873309  0.94894747    -0.03900
C1744       C  0.08630038  0.47484458  0.95324537     0.03100
C1745       C  0.12968277  0.47554941  0.90492109     0.09900
C1746       C  0.12624509  0.52574644  0.89737371     0.35800
C1747       C  0.07358291  0.45736403  0.97231338     0.39200
C1748       C  0.11337534  0.45281618  0.89047870    -0.04300
C1749       C  0.12730158  0.44394687  0.87617967     0.02800
C1750       C  0.15763505  0.45810366  0.87597517    -0.03900
C1751       C  0.17394858  0.48090521  0.89030234    -0.00100
C1752       C  0.16000262  0.48940980  0.90489925    -0.02700
C1753       C  0.08220777  0.43835993  0.89054389     0.36600
C1754       C  0.20512917  0.49585333  0.88980069     0.40200
C1755       C  0.11038757  0.41966819  0.86214314     0.39300
C1756       C  0.17677872  0.51206793  0.92019034     0.36200
C1757       C  0.10448753  0.44314139  0.94356227     0.36900
C1758       C  0.09523129  0.54077872  0.92575554     0.40200
N1759       N  0.09687082  0.40018615  0.85104830    -0.37900
N1760       N  0.05734177  0.42681452  0.89068226    -0.39500
N1761       N  0.23001372  0.50789857  0.88928013    -0.37200
N1762       N  0.19015194  0.53007986  0.93245446    -0.39600
N1763       N  0.13698019  0.53924991  0.88208507    -0.39400
N1764       N  0.09369777  0.56062933  0.92177174    -0.37000
N1765       N  0.06329939  0.44312798  0.98736145    -0.38100
N1766       N  0.10650065  0.42346207  0.94706374    -0.39700
C1767       C  0.91362942  0.54952121  0.05392781    -0.04700
C1768       C  0.91355651  0.54530941  0.07628515     0.09500
C1769       C  0.92843438  0.53267560  0.08467915    -0.02100
C1770       C  0.94313621  0.52410453  0.07087118    -0.00300
C1771       C  0.94432116  0.52927177  0.04836551    -0.03900
C1772       C  0.92912793  0.54192383  0.04004832     0.03100
C1773       C  0.89773906  0.55410332  0.09110124     0.09900
C1774       C  0.92895218  0.52887498  0.10772865     0.35800
C1775       C  0.92991927  0.54812206  0.01729935     0.39200
C1776       C  0.87197283  0.53307104  0.10117744    -0.04300
C1777       C  0.85792942  0.54119888  0.11599312     0.02800
C1778       C  0.86916755  0.57047139  0.12051224    -0.03900
C1779       C  0.89442233  0.59156767  0.10995196    -0.00100
C1780       C  0.90885309  0.58340349  0.09550902    -0.02700
C1781       C  0.85999276  0.50299298  0.09634979     0.36600
C1782       C  0.90617791  0.62166708  0.11456805     0.40200
C1783       C  0.83164020  0.51940435  0.12640772     0.39300
C1784       C  0.93558710  0.60513086  0.08558971     0.36200
C1785       C  0.89786126  0.56201228  0.04522107     0.36900
C1786       C  0.95637536  0.50930728  0.08008191     0.40200
N1787       N  0.81068393  0.50206677  0.13475384    -0.37900
N1788       N  0.85052910  0.47900170  0.09253758    -0.39500
N1789       N  0.91547052  0.64566038  0.11826917    -0.37200
N1790       N  0.95690795  0.62245159  0.07765088    -0.39600
N1791       N  0.92933617  0.52587949  0.12610502    -0.58600
N1792       N  0.96686800  0.49749920  0.08750895    -0.37000
N1793       N  0.93042838  0.55309889  0.99916918    -0.38100
N1794       N  0.88537144  0.57209637  0.03834683    -0.39700
C1795       C  0.11973200  0.64300810  0.05723311    -0.04700
C1796       C  0.13952441  0.63849595  0.06853539     0.09500
C1797       C  0.13948800  0.61294061  0.06533576    -0.02100
C1798       C  0.11921925  0.59166371  0.05134753    -0.00300
C1799       C  0.09856992  0.59564225  0.04083354    -0.03900
C1800       C  0.09880841  0.62132925  0.04388984     0.03100
C1801       C  0.15866899  0.65976078  0.08510583     0.09900
C1802       C  0.15990913  0.60835370  0.07683211     0.35800
C1803       C  0.07616670  0.62455226  0.03469947     0.39200
C1804       C  0.14930093  0.65629384  0.10661432    -0.04300
C1805       C  0.16548188  0.67785887  0.12189945     0.02800
C1806       C  0.19128510  0.70327863  0.11572124    -0.03900
C1807       C  0.20145104  0.70577098  0.09437325    -0.00100
C1808       C  0.18514687  0.68412550  0.07916406    -0.02700
C1809       C  0.12242189  0.63074433  0.11282870     0.36600
C1810       C  0.22888847  0.73048477  0.08800126     0.40200
C1811       C  0.15460813  0.67420122  0.14366947     0.39300
C1812       C  0.19534530  0.68702021  0.05725446     0.36200
C1813       C  0.12053042  0.66977613  0.05976412     0.36900
C1814       C  0.11910517  0.56534841  0.04813874     0.40200
N1815       N  0.14591052  0.67113086  0.16104171    -0.37900
N1816       N  0.10099450  0.61031478  0.11770782    -0.39500
N1817       N  0.25077293  0.75018138  0.08289622    -0.37200
N1818       N  0.20344740  0.68924136  0.03976951    -0.39600
N1819       N  0.17618650  0.60470919  0.08607178    -0.39400
N1820       N  0.11894983  0.54432482  0.04552808    -0.37000
N1821       N  0.05779875  0.62699474  0.02783725    -0.38100
N1822       N  0.12138378  0.69125134  0.06166340    -0.39700
C1823       C  0.99380329  0.34185293  0.08207755    -0.04700
C1824       C  0.00720702  0.36964587  0.09081591     0.09500
C1825       C  0.01893009  0.37461660  0.11165884    -0.02100
C1826       C  0.01753242  0.35195086  0.12363395    -0.00300
C1827       C  0.00396341  0.32396938  0.11497676    -0.03900
C1828       C  0.99197635  0.31907940  0.09414295     0.03100
C1829       C  0.00892606  0.39366179  0.07792271     0.09900
C1830       C  0.03242187  0.40314682  0.12075494     0.35800
C1831       C  0.97934765  0.29106286  0.08440509     0.39200
C1832       C  0.98519748  0.39743676  0.07724642    -0.04300
C1833       C  0.98611577  0.41901012  0.06413831     0.02800
C1834       C  0.01086451  0.43704305  0.05174127    -0.03900
C1835       C  0.03497815  0.43389323  0.05299657    -0.00100
C1836       C  0.03392050  0.41209990  0.06591354    -0.02700
C1837       C  0.95976463  0.37887228  0.08995295     0.36600
C1838       C  0.06119348  0.45366260  0.04150898     0.40200
C1839       C  0.96132551  0.42220037  0.06298414     0.39300
C1840       C  0.05841954  0.40840922  0.06673019     0.36200
C1841       C  0.98248994  0.33690695  0.06037926     0.36900
C1842       C  0.02979179  0.35756007  0.14497882     0.40200
N1843       N  0.94154634  0.42474885  0.06202829    -0.37900
N1844       N  0.93955826  0.36398289  0.10014946    -0.39500
N1845       N  0.08223442  0.46964309  0.03256255    -0.37200
N1846       N  0.07794005  0.40542442  0.06740802    -0.39600
N1847       N  0.04315789  0.42591469  0.12800315    -0.39400
N1848       N  0.03959124  0.36265939  0.16205514    -0.37000
N1849       N  0.96961636  0.26917276  0.07586486    -0.38100
N1850       N  0.97357961  0.33305382  0.04304436    -0.39700
C1851       C  0.99272957  0.60088272  0.91526513    -0.04700
C1852       C  0.01143179  0.63012503  0.92007177     0.09500
C1853       C  0.03162123  0.63808833  0.93681339    -0.02100
C1854       C  0.03243083  0.61690233  0.94923911    -0.00300
C1855       C  0.01316247  0.58742340  0.94490241    -0.03900
C1856       C  0.99388976  0.57962057  0.92739539     0.03100
C1857       C  0.00958565  0.65272999  0.90784177     0.09900
C1858       C  0.05142307  0.66823976  0.94134936     0.35800
C1859       C  0.97649224  0.54990961  0.92093884     0.39200
C1860       C  0.99494569  0.66520217  0.91682516    -0.04300
C1861       C  0.99462198  0.68773348  0.90606311     0.02800
C1862       C  0.00817208  0.69747188  0.88585820    -0.03900
C1863       C  0.02291212  0.68492713  0.87689423    -0.00100
C1864       C  0.02352232  0.66259179  0.88784438    -0.02700
C1865       C  0.98048090  0.65499880  0.93736023     0.36600
C1866       C  0.03740296  0.69467928  0.85639622     0.40200
C1867       C  0.98234300  0.70241011  0.91671052     0.39300
C1868       C  0.03859395  0.64974037  0.87860695     0.36200
C1869       C  0.97214697  0.59278331  0.89789467     0.36900
C1870       C  0.05287228  0.62567545  0.96674218     0.40200
N1871       N  0.97302746  0.71416080  0.92586065    -0.37900
N1872       N  0.96893297  0.64680706  0.95372717    -0.39500
N1873       N  0.04905714  0.70182331  0.83998680    -0.37200
N1874       N  0.05050673  0.63938493  0.87121408    -0.39600
N1875       N  0.06716005  0.69230177  0.94491130    -0.39400
N1876       N  0.06945854  0.63284832  0.98053061    -0.37000
N1877       N  0.96297542  0.52637383  0.91525089    -0.38100
N1878       N  0.95577583  0.58652401  0.88402882    -0.39700
C1879       C  0.31453236  0.86335803  0.59808567    -0.04700
C1880       C  0.33650563  0.85814536  0.59262473     0.09500
C1881       C  0.33676460  0.83460050  0.60164848    -0.02100
C1882       C  0.31508393  0.81628913  0.61622606    -0.00300
C1883       C  0.29308306  0.82149578  0.62173753    -0.03900
C1884       C  0.29304381  0.84529014  0.61282842     0.03100
C1885       C  0.36021808  0.87833482  0.57810115     0.09900
C1886       C  0.35956025  0.82948958  0.59604095     0.35800
C1887       C  0.27184373  0.85213208  0.61970262     0.39200
C1888       C  0.38317446  0.90422693  0.58636793    -0.04300
C1889       C  0.40523329  0.92377280  0.57261521     0.02800
C1890       C  0.40509634  0.91681877  0.55080697    -0.03900
C1891       C  0.38260651  0.89057823  0.54264076    -0.00100
C1892       C  0.35974363  0.87165182  0.55618797    -0.02700
C1893       C  0.38417155  0.91056860  0.60906928     0.36600
C1894       C  0.38287427  0.88326014  0.52031767     0.40200
C1895       C  0.42824013  0.95099561  0.58090640     0.39300
C1896       C  0.33545365  0.84558549  0.54760145     0.36200
C1897       C  0.31425108  0.88750502  0.58863927     0.36900
C1898       C  0.31537352  0.79207505  0.62549666     0.40200
N1899       N  0.44654366  0.97278560  0.58740398    -0.37900
N1900       N  0.38502440  0.91552576  0.62719834    -0.39500
N1901       N  0.38318278  0.87733138  0.50254004    -0.37200
N1902       N  0.31590583  0.82486470  0.54080607    -0.39600
N1903       N  0.37777776  0.82550313  0.59146862    -0.39400
N1904       N  0.31566218  0.77280060  0.63292391    -0.37000
N1905       N  0.25504160  0.85763572  0.62534136    -0.38100
N1906       N  0.31402168  0.90674292  0.58107525    -0.39700
C1907       C  0.48594364  0.09240902  0.58999904    -0.04700
C1908       C  0.47441852  0.10820496  0.58135250     0.09500
C1909       C  0.46642490  0.10480888  0.55949908    -0.02100
C1910       C  0.46984478  0.08569450  0.54639146    -0.00300
C1911       C  0.48160363  0.06997711  0.55497823    -0.03900
C1912       C  0.48950781  0.07338297  0.57691219     0.03100
C1913       C  0.46982243  0.12770528  0.59551650     0.09900
C1914       C  0.45453581  0.12096507  0.55056248     0.35800
C1915       C  0.49980527  0.05612208  0.58638057     0.39200
C1916       C  0.49192371  0.15665638  0.59828400    -0.04300
C1917       C  0.48779653  0.17466879  0.61214142     0.02800
C1918       C  0.46143199  0.16391620  0.62314710    -0.03900
C1919       C  0.43923596  0.13506887  0.62019543    -0.00100
C1920       C  0.44346045  0.11701247  0.60652225    -0.02700
C1921       C  0.51890652  0.16783494  0.58684367     0.36600
C1922       C  0.41220497  0.12383490  0.63161647     0.40200
C1923       C  0.51053123  0.20437085  0.61489651     0.39300
C1924       C  0.42078010  0.08726586  0.60392407     0.36200
C1925       C  0.49361244  0.09540074  0.61255412     0.36900
C1926       C  0.46152594  0.08246401  0.52396507     0.40200
N1927       N  0.52864919  0.22809095  0.61709084    -0.37900
N1928       N  0.54040862  0.17671015  0.57766348    -0.39500
N1929       N  0.39070725  0.11503603  0.64078796    -0.37200
N1930       N  0.40272055  0.06350052  0.60186699    -0.39600
N1931       N  0.44506609  0.13390217  0.54348040    -0.39400
N1932       N  0.45481794  0.07981481  0.50608466    -0.37000
N1933       N  0.50773688  0.04218068  0.59408061    -0.38100
N1934       N  0.49963002  0.09783302  0.63057288    -0.39700
C1935       C  0.55072762  0.87360131  0.41977501    -0.04700
C1936       C  0.52404509  0.87187865  0.41779614     0.09500
C1937       C  0.50421795  0.85388700  0.40208648    -0.02100
C1938       C  0.51158224  0.83885267  0.38770374    -0.00300
C1939       C  0.53926452  0.84234287  0.38847098    -0.03900
C1940       C  0.55836879  0.85889720  0.40521326     0.03100
C1941       C  0.51735661  0.89009346  0.43159862     0.09900
C1942       C  0.47642776  0.85140849  0.40040547     0.35800
C1943       C  0.58628205  0.86171216  0.40719395     0.39200
C1944       C  0.52936074  0.91930432  0.42653160    -0.04300
C1945       C  0.52363782  0.93683273  0.43957214     0.02800
C1946       C  0.50461833  0.92496323  0.45741764    -0.03900
C1947       C  0.49206532  0.89531597  0.46206523    -0.00100
C1948       C  0.49886964  0.87820070  0.44944399    -0.02700
C1949       C  0.54753548  0.93126814  0.40766583     0.36600
C1950       C  0.47138966  0.88192970  0.47939441     0.40200
C1951       C  0.53837675  0.96731136  0.43485725     0.39300
C1952       C  0.48683952  0.84820760  0.45477484     0.36200
C1953       C  0.57057463  0.89109135  0.43658700     0.36900
C1954       C  0.49027846  0.81922148  0.37242992     0.40200
N1955       N  0.55026279  0.99160080  0.43104693    -0.37900
N1956       N  0.56189715  0.94066859  0.39255852    -0.39500
N1957       N  0.45482814  0.87115618  0.49316962    -0.37200
N1958       N  0.47731691  0.82428084  0.45898093    -0.39600
N1959       N  0.45425927  0.84943493  0.39909229    -0.39400
N1960       N  0.47327878  0.80345176  0.36031274    -0.37000
N1961       N  0.60847835  0.86382023  0.40891995    -0.38100
N1962       N  0.58637668  0.90508118  0.45000080    -0.39700
C1963       C  0.62158577  0.09378406  0.44817864    -0.04700
C1964       C  0.61706366  0.11074886  0.43349150     0.09500
C1965       C  0.59191076  0.11203048  0.43482498    -0.02100
C1966       C  0.57067434  0.09529710  0.45020143    -0.00300
C1967       C  0.57474029  0.07753212  0.46436238    -0.03900
C1968       C  0.60066351  0.07758133  0.46386589     0.03100
C1969       C  0.63875530  0.12682002  0.41636424     0.09900
C1970       C  0.58756517  0.12987840  0.41994747     0.35800
C1971       C  0.60522249  0.05995614  0.47886922     0.39200
C1972       C  0.63658546  0.11362234  0.39646819    -0.04300
C1973       C  0.65847163  0.12777356  0.38095750     0.02800
C1974       C  0.68269031  0.15524574  0.38536339    -0.03900
C1975       C  0.68414179  0.16882672  0.40503162    -0.00100
C1976       C  0.66224074  0.15458474  0.42048725    -0.02700
C1977       C  0.61211088  0.08513232  0.39224909     0.36600
C1978       C  0.70792068  0.19767838  0.40928349     0.40200
C1979       C  0.65655039  0.11341784  0.36091534     0.39300
C1980       C  0.66395456  0.16825937  0.44081924     0.36200
C1981       C  0.64715420  0.09196650  0.44642114     0.36900
C1982       C  0.54460740  0.09627754  0.45152277     0.40200
N1983       N  0.65495177  0.10195150  0.34492395    -0.37900
N1984       N  0.59256833  0.06240641  0.38895650    -0.39500
N1985       N  0.72687756  0.22069881  0.41266573    -0.37200
N1986       N  0.66520223  0.17905928  0.45706515    -0.39600
N1987       N  0.58407971  0.14408959  0.40804784    -0.39400
N1988       N  0.52389290  0.09718652  0.45274890    -0.37000
N1989       N  0.60888152  0.04601200  0.49092658    -0.38100
N1990       N  0.66743132  0.09034424  0.44482715    -0.39700
C1991       C  0.34463336  0.97528203  0.38757447    -0.04700
C1992       C  0.35034696  0.98792156  0.40808755     0.09500
C1993       C  0.33458738  0.00005055  0.41546647    -0.02100
C1994       C  0.31296811  0.99926456  0.40253926    -0.00300
C1995       C  0.30729969  0.98692059  0.38184412    -0.03900
C1996       C  0.32318001  0.97474349  0.37448453     0.03100
C1997       C  0.37258596  0.98809672  0.42230198     0.09900
C1998       C  0.34053055  0.01316202  0.43655738     0.35800
C1999       C  0.31809231  0.96217602  0.35330288     0.39200
C2000       C  0.40203515  0.00830120  0.41890224    -0.04300
C2001       C  0.42286189  0.00960899  0.43312829     0.02800
C2002       C  0.41425759  0.99136168  0.45135739    -0.03900
C2003       C  0.38465491  0.97094320  0.45458327    -0.00100
C2004       C  0.36400254  0.96900192  0.43986973    -0.02700
C2005       C  0.41079707  0.02814354  0.40095551     0.36600
C2006       C  0.37536710  0.95140220  0.47274692     0.40200
C2007       C  0.45308348  0.03030668  0.42917319     0.39300
C2008       C  0.33379734  0.94725714  0.44267356     0.36200
C2009       C  0.36092029  0.96286157  0.37995964     0.36900
C2010       C  0.29522536  0.00934457  0.41132657     0.40200
N2011       N  0.47716569  0.04667562  0.42579322    -0.37900
N2012       N  0.41769200  0.04394107  0.38663615    -0.39500
N2013       N  0.36791688  0.93587897  0.48727330    -0.37200
N2014       N  0.30968300  0.92991791  0.44474564    -0.39600
N2015       N  0.34529373  0.02352960  0.45340136    -0.39400
N2016       N  0.28106924  0.01696306  0.41908178    -0.37000
N2017       N  0.31471457  0.95221042  0.33638893    -0.38100
N2018       N  0.37401102  0.95308163  0.37383852    -0.39700
C2019       C  0.65784908  0.00300860  0.58544547    -0.04700
C2020       C  0.63032937  0.98886057  0.59497298     0.09500
C2021       C  0.62613936  0.97538439  0.61509869    -0.02100
C2022       C  0.64946388  0.97618205  0.62573414    -0.00300
C2023       C  0.67724722  0.99074446  0.61636128    -0.03900
C2024       C  0.68116303  0.00387687  0.59603761     0.03100
C2025       C  0.60577244  0.98808176  0.58351382     0.09900
C2026       C  0.59779205  0.96088014  0.62488860     0.35800
C2027       C  0.70879037  0.01694085  0.58533156     0.39200
C2028       C  0.59004597  0.96680323  0.56803747    -0.04300
C2029       C  0.56874556  0.96760621  0.55565120     0.02800
C2030       C  0.56260385  0.98962701  0.55892492    -0.03900
C2031       C  0.57794816  0.01039361  0.57508602    -0.00100
C2032       C  0.59950807  0.00965899  0.58717527    -0.02700
C2033       C  0.59637824  0.94440311  0.56457473     0.36600
C2034       C  0.57165286  0.03257747  0.57953577     0.40200
C2035       C  0.55438506  0.94645558  0.53883440     0.39300
C2036       C  0.61576160  0.03146395  0.60320619     0.36200
C2037       C  0.66205542  0.01652866  0.56457554     0.36900
C2038       C  0.64479611  0.96267284  0.64658355     0.40200
N2039       N  0.54303319  0.92955934  0.52543479    -0.37900
N2040       N  0.60152238  0.92660274  0.56189996    -0.39500
N2041       N  0.56690454  0.05046403  0.58311249    -0.37200
N2042       N  0.62882232  0.04882045  0.61598540    -0.39600
N2043       N  0.57518193  0.94937597  0.63271171    -0.39400
N2044       N  0.64036402  0.95192080  0.66332270    -0.37000
N2045       N  0.73038848  0.02700723  0.57612097    -0.38100
N2046       N  0.66532118  0.02725773  0.54792119    -0.39700
C2047       C  0.66934995  0.50280063  0.90765070    -0.04700
C2048       C  0.66041182  0.52267140  0.91000988     0.09500
C2049       C  0.67329562  0.54786769  0.89739781    -0.02100
C2050       C  0.69507130  0.55322713  0.88253803    -0.00300
C2051       C  0.70405160  0.53340275  0.88020649    -0.03900
C2052       C  0.69117619  0.50818050  0.89276950     0.03100
C2053       C  0.63734971  0.51724418  0.92574979     0.09900
C2054       C  0.66375852  0.56804432  0.89953512     0.35800
C2055       C  0.70048275  0.48785824  0.89038994     0.39200
C2056       C  0.64484316  0.53009074  0.94620467    -0.04300
C2057       C  0.62326396  0.52706694  0.96042599     0.02800
C2058       C  0.59396050  0.51100897  0.95430032    -0.03900
C2059       C  0.58646208  0.49746095  0.93397852    -0.00100
C2060       C  0.60812584  0.50066422  0.91975601    -0.02700
C2061       C  0.67490494  0.54685121  0.95241372     0.36600
C2062       C  0.55659228  0.48149700  0.92715081     0.40200
C2063       C  0.63125996  0.54031655  0.98144790     0.39300
C2064       C  0.60048721  0.48769906  0.89862337     0.36200
C2065       C  0.65589279  0.47676900  0.92043382     0.36900
C2066       C  0.70782649  0.57883994  0.86926658     0.40200
N2067       N  0.63763284  0.55090306  0.99821337    -0.37900
N2068       N  0.69892528  0.56023951  0.95727069    -0.39500
N2069       N  0.53278303  0.46880672  0.92168113    -0.37200
N2070       N  0.59447013  0.47743536  0.88173973    -0.39600
N2071       N  0.65604603  0.58405366  0.90128013    -0.39400
N2072       N  0.71800109  0.59920194  0.85860730    -0.37000
N2073       N  0.70797787  0.47169445  0.88848448    -0.38100
N2074       N  0.64504952  0.45595670  0.93060118    -0.39700
C2075       C  0.53896816  0.61291420  0.91466394    -0.04700
C2076       C  0.53252142  0.63376643  0.92078289     0.09500
C2077       C  0.52092895  0.63236613  0.94133079    -0.02100
C2078       C  0.51646250  0.61058115  0.95590902    -0.00300
C2079       C  0.52362258  0.59015815  0.94997818    -0.03900
C2080       C  0.53469108  0.59125743  0.92925338     0.03100
C2081       C  0.53897052  0.65779539  0.90574471     0.09900
C2082       C  0.51377764  0.65347573  0.94745098     0.35800
C2083       C  0.54124784  0.56979466  0.92282242     0.39200
C2084       C  0.51788601  0.65518851  0.89119708    -0.04300
C2085       C  0.52439724  0.67751567  0.87651249     0.02800
C2086       C  0.55219074  0.70260504  0.87621979    -0.03900
C2087       C  0.57329167  0.70508608  0.89089210    -0.00100
C2088       C  0.56661549  0.68280468  0.90561458    -0.02700
C2089       C  0.48952327  0.62935498  0.89131315     0.36600
C2090       C  0.60230537  0.73003835  0.89037907     0.40200
C2091       C  0.50220118  0.67486457  0.86209214     0.39300
C2092       C  0.58834734  0.68537413  0.92051207     0.36200
C2093       C  0.54990870  0.61377374  0.89326999     0.36900
C2094       C  0.50539845  0.60971134  0.97725401     0.40200
N2095       N  0.48447984  0.67273413  0.85059236    -0.37900
N2096       N  0.46693173  0.60868593  0.89144815    -0.39500
N2097       N  0.62542760  0.74994591  0.88996505    -0.37200
N2098       N  0.60566444  0.68737954  0.93238580    -0.39600
N2099       N  0.50799821  0.67029245  0.95227684    -0.39400
N2100       N  0.49664427  0.60900313  0.99431730    -0.37000
N2101       N  0.54642344  0.55263673  0.91770397    -0.38100
N2102       N  0.55850782  0.61449348  0.87614838    -0.39700
C2103       C  0.45981903  0.37533077  0.06101596    -0.04700
C2104       C  0.48045286  0.37339319  0.07340007     0.09500
C2105       C  0.50958624  0.39592071  0.07273218    -0.02100
C2106       C  0.51793427  0.42056431  0.06007846    -0.00300
C2107       C  0.49723014  0.42253126  0.04781823    -0.03900
C2108       C  0.46816966  0.39979857  0.04825754     0.03100
C2109       C  0.47105950  0.34808710  0.08788895     0.09900
C2110       C  0.53086299  0.39369602  0.08515831     0.35800
C2111       C  0.44664359  0.40207289  0.03614475     0.39200
C2112       C  0.46995996  0.32330077  0.08027182    -0.04300
C2113       C  0.45961957  0.29890847  0.09363626     0.02800
C2114       C  0.45002671  0.29903878  0.11479686    -0.03900
C2115       C  0.45152831  0.32424116  0.12239388    -0.00100
C2116       C  0.46205592  0.34857095  0.10900049    -0.02700
C2117       C  0.47934699  0.32294323  0.05854463     0.36600
C2118       C  0.44123044  0.32504630  0.14371187     0.40200
C2119       C  0.45958416  0.27402509  0.08560400     0.39300
C2120       C  0.46318161  0.37411921  0.11679281     0.36200
C2121       C  0.42987526  0.35225299  0.06169558     0.36900
C2122       C  0.54775783  0.44387103  0.05963482     0.40200
N2123       N  0.45962267  0.25428217  0.07901605    -0.37900
N2124       N  0.48683849  0.32274691  0.04119654    -0.39500
N2125       N  0.43309668  0.32576033  0.16072637    -0.37200
N2126       N  0.46408025  0.39451131  0.12295601    -0.39600
N2127       N  0.54780639  0.39180404  0.09504545    -0.39400
N2128       N  0.57156030  0.46249495  0.05927800    -0.37000
N2129       N  0.42952278  0.40402468  0.02655362    -0.38100
N2130       N  0.40599824  0.33382157  0.06227727    -0.39700
C2131       C  0.34575513  0.50347133  0.08753238    -0.04700
C2132       C  0.35857599  0.48676014  0.08820695     0.09500
C2133       C  0.34724905  0.46268165  0.10193040    -0.02100
C2134       C  0.32343279  0.45555938  0.11516199    -0.00300
C2135       C  0.31049887  0.47220440  0.11444256    -0.03900
C2136       C  0.32142450  0.49590807  0.10035008     0.03100
C2137       C  0.38368435  0.49399856  0.07410046     0.09900
C2138       C  0.36014446  0.44522413  0.10235747     0.35800
C2139       C  0.30790615  0.51276081  0.09929957     0.39200
C2140       C  0.41201867  0.51233302  0.08155465    -0.04300
C2141       C  0.43571131  0.51773288  0.06872448     0.02800
C2142       C  0.43114490  0.50442461  0.04843636    -0.03900
C2143       C  0.40258456  0.48612401  0.04100114    -0.00100
C2144       C  0.37902827  0.48135488  0.05366453    -0.02700
C2145       C  0.41668056  0.52540530  0.10256250     0.36600
C2146       C  0.39719917  0.47075075  0.02089702     0.40200
C2147       C  0.46474407  0.53728020  0.07634693     0.39300
C2148       C  0.34984550  0.46305105  0.04583164     0.36200
C2149       C  0.35793683  0.52867029  0.07387178     0.36900
C2150       C  0.31175768  0.43064444  0.12913385     0.40200
N2151       N  0.48790281  0.55287904  0.08243237    -0.37900
N2152       N  0.42029924  0.53577137  0.11934176    -0.39500
N2153       N  0.39290314  0.45835435  0.00494353    -0.37200
N2154       N  0.32655991  0.44856981  0.03957740    -0.39600
N2155       N  0.37043917  0.43130479  0.10263436    -0.39400
N2156       N  0.30237799  0.41078907  0.14029244    -0.37000
N2157       N  0.29699172  0.52608826  0.09840260    -0.38100
N2158       N  0.36785165  0.54889872  0.06307980    -0.39700
C2159       C  0.33177960  0.34848165  0.92758568    -0.04700
C2160       C  0.35885272  0.36443390  0.91755051     0.09500
C2161       C  0.36287881  0.35679875  0.89686655    -0.02100
C2162       C  0.34009962  0.33277435  0.88641519    -0.00300
C2163       C  0.31300992  0.31614607  0.89664618    -0.03900
C2164       C  0.30910637  0.32419611  0.91735885     0.03100
C2165       C  0.38378615  0.38795627  0.92950109     0.09900
C2166       C  0.39065319  0.37376297  0.88640303     0.35800
C2167       C  0.28253271  0.30634592  0.92900344     0.39200
C2168       C  0.40048539  0.38139526  0.94282755    -0.04300
C2169       C  0.42369965  0.40320278  0.95459808     0.02800
C2170       C  0.43089010  0.43214833  0.95278054    -0.03900
C2171       C  0.41406422  0.43855663  0.93908768    -0.00100
C2172       C  0.39051821  0.41647035  0.92767111    -0.02700
C2173       C  0.39350131  0.35193281  0.94449024     0.36600
C2174       C  0.42110660  0.46787481  0.93624461     0.40200
C2175       C  0.43928549  0.39528161  0.96914543     0.39300
C2176       C  0.37302836  0.42295350  0.91400949     0.36200
C2177       C  0.32747093  0.35692241  0.94864605     0.36900
C2178       C  0.34490858  0.32569581  0.86509771     0.40200
N2179       N  0.45162359  0.38880140  0.98069102    -0.37900
N2180       N  0.38784259  0.32842239  0.94570915    -0.39500
N2181       N  0.42661602  0.49122603  0.93396411    -0.37200
N2182       N  0.35897419  0.42799102  0.90311926    -0.39600
N2183       N  0.41279699  0.38740349  0.87807009    -0.39400
N2184       N  0.34981912  0.32109464  0.84801687    -0.37000
N2185       N  0.26186710  0.29228908  0.93898121    -0.38100
N2186       N  0.32405479  0.36379647  0.96538960    -0.39700
C2187       C  0.61672633  0.63969077  0.06407034    -0.04700
C2188       C  0.63031796  0.63329377  0.08054811     0.09500
C2189       C  0.62392407  0.60492791  0.08322414    -0.02100
C2190       C  0.60408133  0.58302247  0.06946193    -0.00300
C2191       C  0.59081855  0.58942348  0.05264339    -0.03900
C2192       C  0.59738556  0.61794658  0.04993329     0.03100
C2193       C  0.65208237  0.65653121  0.09482033     0.09900
C2194       C  0.63800039  0.59841024  0.10014323     0.35800
C2195       C  0.58369272  0.62484407  0.03295888     0.39200
C2196       C  0.64442538  0.65997704  0.11569372    -0.04300
C2197       C  0.66550235  0.68039701  0.12969865     0.02800
C2198       C  0.69433342  0.69827695  0.12270623    -0.03900
C2199       C  0.70169522  0.69515889  0.10153361    -0.00100
C2200       C  0.68071033  0.67426258  0.08774344    -0.02700
C2201       C  0.61473641  0.64241045  0.12272527     0.36600
C2202       C  0.73049664  0.71412607  0.09338368     0.40200
C2203       C  0.65754932  0.68168484  0.15164341     0.39300
C2204       C  0.68849872  0.67100836  0.06612693     0.36200
C2205       C  0.62229450  0.66859164  0.06200431     0.36900
C2206       C  0.59800246  0.55402918  0.07225205     0.40200
N2207       N  0.65043715  0.68160152  0.16915707    -0.37900
N2208       N  0.59102997  0.62848557  0.12829528    -0.39500
N2209       N  0.75306976  0.72909773  0.08603801    -0.37200
N2210       N  0.69462944  0.66843812  0.04885413    -0.39600
N2211       N  0.64929382  0.59339923  0.11369867    -0.39400
N2212       N  0.59316926  0.53090685  0.07449969    -0.37000
N2213       N  0.57284649  0.63037362  0.01937500    -0.38100
N2214       N  0.62667025  0.69163946  0.06052935    -0.39700
C2215       C  0.50186028  0.10997532  0.92091285    -0.04700
C2216       C  0.48407471  0.12020306  0.92756224     0.09500
C2217       C  0.47107271  0.11263324  0.94803574    -0.02100
C2218       C  0.47577533  0.09490285  0.96180543    -0.00300
C2219       C  0.49309771  0.08400580  0.95499716    -0.03900
C2220       C  0.50609286  0.09170032  0.93439333     0.03100
C2221       C  0.47846124  0.13835952  0.91267471     0.09900
C2222       C  0.45219747  0.12253904  0.95470484     0.35800
C2223       C  0.52415650  0.08115423  0.92699045     0.39200
C2224       C  0.45996762  0.12574362  0.89488579    -0.04300
C2225       C  0.45538368  0.14287313  0.88040193     0.02800
C2226       C  0.46868082  0.17266663  0.88392783    -0.03900
C2227       C  0.48650906  0.18513657  0.90207819    -0.00100
C2228       C  0.49175000  0.16812294  0.91620433    -0.02700
C2229       C  0.44526257  0.09497969  0.89174655     0.36600
C2230       C  0.49978144  0.21559665  0.90607741     0.40200
C2231       C  0.43611972  0.12962135  0.86230755     0.39300
C2232       C  0.51101116  0.18125243  0.93430688     0.36200
C2233       C  0.51582072  0.11831829  0.90007402     0.36900
C2234       C  0.46167445  0.08699393  0.98261857     0.40200
N2235       N  0.42074671  0.11905514  0.84787641    -0.37900
N2236       N  0.43355236  0.07042474  0.88934617    -0.39500
N2237       N  0.51022062  0.23987389  0.90928774    -0.37200
N2238       N  0.52635226  0.19169593  0.94876979    -0.39600
N2239       N  0.43712852  0.13042535  0.96001222    -0.39400
N2240       N  0.45049203  0.08076064  0.99923520    -0.37000
N2241       N  0.53838725  0.07258989  0.92099311    -0.38100
N2242       N  0.52688656  0.12498139  0.88343424    -0.39700
C2243       C  0.37575708  0.91502861  0.94093719    -0.04700
C2244       C  0.37688291  0.89264353  0.93069177     0.09500
C2245       C  0.39921563  0.88765674  0.93570836    -0.02100
C2246       C  0.42099661  0.90575958  0.95028463    -0.00300
C2247       C  0.42046069  0.92884425  0.95974223    -0.03900
C2248       C  0.39756188  0.93314662  0.95538646     0.03100
C2249       C  0.35501744  0.87514929  0.91400831     0.09900
C2250       C  0.40013552  0.86439307  0.92543928     0.35800
C2251       C  0.39690934  0.95676626  0.96536403     0.39200
C2252       C  0.35651965  0.88715489  0.89359656    -0.04300
C2253       C  0.33462083  0.87174967  0.87837761     0.02800
C2254       C  0.31119611  0.84404193  0.88343391    -0.03900
C2255       C  0.31013432  0.83180831  0.90372877    -0.00100
C2256       C  0.33199836  0.84733798  0.91895018    -0.02700
C2257       C  0.38036216  0.91572459  0.88848122     0.36600
C2258       C  0.28660489  0.80314552  0.90898186     0.40200
C2259       C  0.33550458  0.88517191  0.85801069     0.39300
C2260       C  0.33061519  0.83491786  0.93986438     0.36200
C2261       C  0.35250381  0.91983100  0.93616091     0.36900
C2262       C  0.44427822  0.90109739  0.95522130     0.40200
N2263       N  0.33619717  0.89594344  0.84180744    -0.37900
N2264       N  0.39932378  0.93856467  0.88450590    -0.39500
N2265       N  0.26776377  0.78033207  0.91318251    -0.37200
N2266       N  0.32962394  0.82498934  0.95651750    -0.39600
N2267       N  0.40075833  0.84574363  0.91727780    -0.39400
N2268       N  0.46284927  0.89738273  0.95921910    -0.37000
N2269       N  0.39647495  0.97563130  0.97332522    -0.38100
N2270       N  0.33403496  0.92372388  0.93222678    -0.39700
C2271       C  0.65305387  0.16945306  0.10685495    -0.04700
C2272       C  0.65162307  0.14864656  0.09278516     0.09500
C2273       C  0.67402158  0.14290921  0.09253839    -0.02100
C2274       C  0.69714468  0.15685476  0.10706786    -0.00300
C2275       C  0.69831619  0.17718974  0.12175820    -0.03900
C2276       C  0.67634246  0.18377777  0.12125977     0.03100
C2277       C  0.62526598  0.13046878  0.07966885     0.09900
C2278       C  0.67264004  0.12178831  0.07771641     0.35800
C2279       C  0.67754052  0.20526814  0.13556220     0.39200
C2280       C  0.62332893  0.13828294  0.05840384    -0.04300
C2281       C  0.60026095  0.11891073  0.04519583     0.02800
C2282       C  0.57938945  0.09164207  0.05319249    -0.03900
C2283       C  0.58028498  0.08463881  0.07487250    -0.00100
C2284       C  0.60324348  0.10399540  0.08807778    -0.02700
C2285       C  0.64555344  0.16581315  0.04997133     0.36600
C2286       C  0.55758817  0.05747004  0.08354572     0.40200
C2287       C  0.59828683  0.12667549  0.02325153     0.39300
C2288       C  0.60484871  0.09635495  0.11014620     0.36200
C2289       C  0.63017793  0.17561842  0.10677564     0.36900
C2290       C  0.71856226  0.14867362  0.10770711     0.40200
N2291       N  0.59651394  0.13281745  0.00576509    -0.37900
N2292       N  0.66329977  0.18778551  0.04322541    -0.39500
N2293       N  0.53937412  0.03589372  0.09050843    -0.37200
N2294       N  0.60632906  0.09040230  0.12774926    -0.39600
N2295       N  0.67139059  0.10493262  0.06585207    -0.39400
N2296       N  0.73552349  0.14199068  0.10820925    -0.37000
N2297       N  0.67842691  0.22231416  0.14703945    -0.38100
N2298       N  0.61192890  0.18054384  0.10670141    -0.39700
C2299       C  0.51195361  0.91539504  0.08664626    -0.04700
C2300       C  0.52924543  0.90500188  0.07904948     0.09500
C2301       C  0.53960246  0.91097706  0.05773398    -0.02100
C2302       C  0.53354259  0.92806305  0.04433450    -0.00300
C2303       C  0.51693711  0.93919047  0.05212838    -0.03900
C2304       C  0.50583721  0.93244410  0.07326521     0.03100
C2305       C  0.53787301  0.88915697  0.09393895     0.09900
C2306       C  0.55688003  0.89986118  0.04971546     0.35800
C2307       C  0.48928216  0.94418882  0.08164848     0.39200
C2308       C  0.52484664  0.85911598  0.09244655    -0.04300
C2309       C  0.53311270  0.84443226  0.10659417     0.02800
C2310       C  0.55365239  0.85957372  0.12283944    -0.03900
C2311       C  0.56662711  0.88960037  0.12434448    -0.00100
C2312       C  0.55909300  0.90437412  0.10974005    -0.02700
C2313       C  0.50247087  0.84327664  0.07666421     0.36600
C2314       C  0.58819188  0.90540285  0.14068379     0.40200
C2315       C  0.51993389  0.81362556  0.10479263     0.39300
C2316       C  0.57324791  0.93533940  0.11088673     0.36200
C2317       C  0.50090728  0.90892182  0.10843847     0.36900
C2318       C  0.54414417  0.93392233  0.02241180     0.40200
N2319       N  0.50955558  0.78906847  0.10333262    -0.37900
N2320       N  0.48454581  0.83062972  0.06411451    -0.39500
N2321       N  0.60535726  0.91795401  0.15374902    -0.37200
N2322       N  0.58448262  0.96003830  0.11174012    -0.39600
N2323       N  0.57053154  0.89083534  0.04332686    -0.39400
N2324       N  0.55257652  0.93859674  0.00491874    -0.37000
N2325       N  0.47615759  0.95363162  0.08836426    -0.38100
N2326       N  0.49224669  0.90379655  0.12586157    -0.39700
C2327       C  0.65786505  0.99492837  0.92838055    -0.04700
C2328       C  0.64691609  0.01002754  0.91772571     0.09500
C2329       C  0.65804751  0.02247231  0.89748320    -0.02100
C2330       C  0.68055427  0.02046800  0.88816916    -0.00300
C2331       C  0.69242033  0.00629485  0.89920373    -0.03900
C2332       C  0.68079735  0.99348834  0.91936534     0.03100
C2333       C  0.62479037  0.01409904  0.92858256     0.09900
C2334       C  0.64664053  0.03783864  0.88644155     0.35800
C2335       C  0.69405364  0.98113469  0.93193595     0.39200
C2336       C  0.63284364  0.03303973  0.94611418    -0.04300
C2337       C  0.61175973  0.03475477  0.95796552     0.02800
C2338       C  0.58227769  0.01747991  0.95236151    -0.03900
C2339       C  0.57458457  0.00017618  0.93367043    -0.00100
C2340       C  0.59576303  0.99827887  0.92203013    -0.02700
C2341       C  0.66294297  0.05045572  0.95217269     0.36600
C2342       C  0.54484374  0.98351957  0.92660417     0.40200
C2343       C  0.62067078  0.05482919  0.97567522     0.39300
C2344       C  0.58759217  0.97937071  0.90363511     0.36200
C2345       C  0.64603218  0.98161260  0.94905411     0.36900
C2346       C  0.69135331  0.03322217  0.86726757     0.40200
N2347       N  0.62781008  0.07086475  0.98977475    -0.37900
N2348       N  0.68692990  0.06421003  0.95704557    -0.39500
N2349       N  0.52119464  0.97041627  0.92079433    -0.37200
N2350       N  0.58112114  0.96438402  0.88891363    -0.39600
N2351       N  0.63736221  0.04992394  0.87762526    -0.39400
N2352       N  0.69923212  0.04348450  0.85046666    -0.37000
N2353       N  0.70442311  0.97164844  0.94267455    -0.38100
N2354       N  0.63661520  0.97113673  0.96556854    -0.39700
C2355       C  0.36777751  0.97541240  0.05888205    -0.04700
C2356       C  0.37150011  0.99803819  0.07198571     0.09500
C2357       C  0.39918202  0.02224470  0.07517824    -0.02100
C2358       C  0.42318119  0.02417708  0.06489098    -0.00300
C2359       C  0.41948590  0.00196042  0.05104115    -0.03900
C2360       C  0.39152254  0.97751484  0.04810762     0.03100
C2361       C  0.34574485  0.99732508  0.08085411     0.09900
C2362       C  0.40278380  0.04540432  0.08875976     0.35800
C2363       C  0.38659662  0.95525482  0.03296745     0.39200
C2364       C  0.33663378  0.98813859  0.10208199    -0.04300
C2365       C  0.31140081  0.98624558  0.10992949     0.02800
C2366       C  0.29529124  0.99367414  0.09653343    -0.03900
C2367       C  0.30433597  0.00236857  0.07515601    -0.00100
C2368       C  0.32965884  0.00457776  0.06744218    -0.02700
C2369       C  0.35316104  0.98039236  0.11571158     0.36600
C2370       C  0.28637811  0.00674495  0.06044736     0.40200
C2371       C  0.30212082  0.97631728  0.13165328     0.39300
C2372       C  0.33898603  0.01383308  0.04550644     0.36200
C2373       C  0.33921398  0.95022823  0.05612202     0.36900
C2374       C  0.45159492  0.04911111  0.06865273     0.40200
N2375       N  0.29544518  0.96814280  0.14908925    -0.37900
N2376       N  0.36641673  0.97427016  0.12655742    -0.39500
N2377       N  0.27208804  0.00939696  0.04805526    -0.37200
N2378       N  0.34646898  0.02115957  0.02802586    -0.39600
N2379       N  0.40557351  0.06381408  0.09962414    -0.39400
N2380       N  0.47422735  0.06906911  0.07157916    -0.37000
N2381       N  0.38253938  0.93753959  0.02082995    -0.38100
N2382       N  0.31639945  0.93021155  0.05401927    -0.39700
loop_ 
_geom_bond_atom_site_label_1 
_geom_bond_atom_site_label_2 
_geom_bond_distance 
_geom_bond_site_symmetry_2 
_ccdc_geom_bond_type 
O1           C17   1.276       .  A
O1           Zn7   2.023   1_556  S
C2           O18   1.276       .  A
C2           O15   1.273       .  A
C2         C2282   1.476       .  S
O3           C16   1.275       .  A
O3          Cd10   2.076       .  S
O4           C22   1.274       .  A
O4          Cd13   2.062       .  S
O5           C19   1.273       .  A
O5           Cd9   2.066       .  S
O6           C17   1.273       .  A
O6           Cd9   2.062       .  S
Zn7          O18   2.023       .  S
Zn7          O20   2.027   1_545  S
Zn7          O12   1.936       .  S
O8           C19   1.274       .  A
O8          Cd13   2.072   1_556  S
Cd9          O11   2.054   1_545  S
Cd9          O12   1.994   1_556  S
Cd10         O14   2.071   1_554  S
Cd10         O23   2.061       .  S
Cd10         O12   2.004   1_565  S
O11          C21   1.272       .  A
O12         Cd13   2.001       .  S
Cd13         O15   2.066       .  S
O14          C21   1.274       .  A
C16          O20   1.275       .  A
C16        C2303   1.488       .  S
C17        C2338   1.494       .  S
C19        C2219   1.494       .  S
C21        C2247   1.471       .  S
C22          O23   1.274   1_545  A
C22        C2359   1.489       .  S
O24          C40   1.277       .  A
O24         Zn30   2.036   1_554  S
C25          O41   1.276       .  A
C25          O38   1.275       .  A
C25        C2058   1.488       .  S
O26          C39   1.275       .  A
O26         Cd33   2.076       .  S
O27          C45   1.274       .  A
O27         Cd36   2.067       .  S
O28          C42   1.275       .  A
O28         Cd32   2.076       .  S
O29          C40   1.276       .  A
O29         Cd32   2.074       .  S
Zn30         O41   2.025       .  S
Zn30         O43   2.020       .  S
Zn30         O35   1.945   1_556  S
O31          C42   1.275       .  A
O31         Cd36   2.075   1_554  S
Cd32         O34   2.074       .  S
Cd32         O35   2.002       .  S
Cd33         O37   2.063   1_556  S
Cd33         O46   2.074       .  S
Cd33         O35   2.004   1_556  S
O34          C44   1.275       .  A
O35         Cd36   2.001   1_554  S
Cd36         O38   2.072       .  S
O37          C44   1.274       .  A
C39          O43   1.274       .  A
C39        C2079   1.481       .  S
C40        C2191   1.489       .  S
C42        C2107   1.481       .  S
C44        C2142   1.489       .  S
C45          O46   1.274       .  A
C45        C2170   1.499       .  S
O47          C63   1.276       .  A
O47         Zn53   2.032       .  S
C48          O64   1.273       .  A
C48          O61   1.274       .  A
C48        C1890   1.469       .  S
O49          C62   1.278       .  A
O49         Cd56   2.098       .  S
O50          C68   1.274       .  A
O50         Cd59   2.067       .  S
O51          C65   1.274       .  A
O51         Cd55   2.070       .  S
O52          C63   1.272       .  A
O52         Cd55   2.059       .  S
Zn53         O64   2.003       .  S
Zn53         O66   2.033   1_565  S
Zn53         O58   1.943       .  S
O54          C65   1.275       .  A
O54         Cd59   2.082       .  S
Cd55         O57   2.044   1_565  S
Cd55         O58   1.992       .  S
Cd56         O60   2.077       .  S
Cd56         O69   2.084       .  S
Cd56         O58   2.008   1_545  S
O57          C67   1.272       .  A
O58         Cd59   2.003       .  S
Cd59         O61   2.062       .  S
O60          C67   1.276       .  A
C62          O66   1.276       .  A
C62        C1911   1.495       .  S
C63        C2002   1.489       .  S
C65        C1946   1.503       .  S
C67        C1967   1.471       .  S
C68          O69   1.277   1_565  A
C68        C2030   1.500       .  S
O70          C86   1.274       .  A
O70         Zn76   2.027   1_554  S
C71          O87   1.274       .  A
C71          O84   1.277       .  A
C71        C1722   1.501       .  S
O72          C85   1.278       .  A
O72         Cd79   2.098       .  S
O73          C91   1.278   1_655  A
O73         Cd82   2.091       .  S
O74          C88   1.274       .  A
O74         Cd78   2.067   1_655  S
O75          C86   1.274       .  A
O75         Cd78   2.076       .  S
Zn76         O87   2.011   1_455  S
Zn76         O89   2.006       .  S
Zn76         O81   1.939       .  S
O77          C88   1.277       .  A
O77         Cd82   2.092   1_554  S
Cd78         O80   2.062       .  S
Cd78         O81   2.000   1_554  S
Cd79         O83   2.090   1_556  S
Cd79         O92   2.081       .  S
Cd79         O81   2.014       .  S
O80          C90   1.273       .  A
O81         Cd82   2.014   1_455  S
Cd82         O84   2.086       .  S
O83          C90   1.277       .  A
C85          O89   1.273       .  A
C85        C1743   1.502       .  S
C86        C1834   1.483       .  S
C88        C1771   1.508       .  S
C90        C1799   1.481       .  S
C91          O92   1.277       .  A
C91        C1855   1.495       .  S
O93         C109   1.275       .  A
O93         Zn99   2.023       .  S
C94         O110   1.275       .  A
C94         O107   1.273       .  A
C94        C1659   1.478       .  S
O95         C108   1.276       .  A
O95        Cd102   2.077       .  S
O96         C114   1.274       .  A
O96        Cd105   2.066   1_455  S
O97         C111   1.275       .  A
O97        Cd101   2.071       .  S
O98         C109   1.276       .  A
O98        Cd101   2.084       .  S
Zn99        O110   2.028       .  S
Zn99        O112   2.012   1_655  S
Zn99        O104   1.942       .  S
O100        C111   1.273       .  A
O100       Cd105   2.058       .  S
Cd101       O103   2.067       .  S
Cd101       O104   2.003       .  S
Cd102       O106   2.079       .  S
Cd102       O115   2.095       .  S
Cd102       O104   2.006   1_455  S
O103        C113   1.274       .  A
O104       Cd105   1.997       .  S
Cd105       O107   2.065       .  S
O106        C113   1.276   1_455  A
C108        O112   1.274       .  A
C108       C1547   1.482       .  S
C109       C1582   1.500       .  S
C111       C1631   1.475       .  S
C113       C1687   1.499       .  S
C114        O115   1.278       .  A
C114       C1603   1.503       .  S
N116        C120   1.360       .  A
N116        C117   1.360   1_655  A
N116       C1666   1.447       .  S
C117       C1491   1.493       .  S
C117        C118   1.382       .  A
C118        C119   1.376   1_455  A
C118        H121   1.082       .  S
C119        C120   1.384       .  A
C119        H122   1.081       .  S
C120       C1526   1.493       .  S
C123       C1939   1.494       .  S
C123        N124   1.363       .  A
C123        N128   1.361       .  A
N124        C125   1.362       .  A
C125       C1463   1.493       .  S
C125        N126   1.357       .  A
N126        C127   1.354       .  A
C127       C1435   1.480       .  S
C127        N128   1.355       .  A
C129       C1974   1.484       .  S
C129        N130   1.360       .  A
C129        N134   1.360       .  A
N130        C131   1.356       .  A
C131       C1519   1.478       .  S
C131        N132   1.354       .  A
N132        C133   1.356       .  A
C133       C1407   1.481       .  S
C133        N134   1.358       .  A
N135        C139   1.360       .  A
N135        C136   1.361       .  A
N135       C1358   1.447       .  S
C136       C1470   1.495       .  S
C136        C137   1.383       .  A
C137        C138   1.376       .  A
C137        H140   1.079       .  S
C138        C139   1.383       .  A
C138        H141   1.079       .  S
C139       C1379   1.493       .  S
C142       C1638   1.481       .  S
C142        N143   1.360       .  A
C142        N147   1.358       .  A
N143        C144   1.358       .  A
C144       C1386   1.477       .  S
C144        N145   1.357       .  A
N145        C146   1.357       .  A
C146       C1330   1.487       .  S
C146        N147   1.355       .  A
C148       C1610   1.483       .  S
C148        N149   1.364       .  A
C148        N153   1.360       .  A
N149        C150   1.364       .  A
C150       C1267   1.496       .  S
C150        N151   1.357       .  A
N151        C152   1.355       .  A
C152       C1295   1.479       .  S
C152        N153   1.357       .  A
N154        C158   1.361       .  A
N154        C155   1.361   1_565  A
N154       C1995   1.449       .  S
C155       C1239   1.494       .  S
C155        C156   1.382       .  A
C156        C157   1.374   1_545  A
C156        H159   1.082       .  S
C157        C158   1.383       .  A
C157        H160   1.081       .  S
C158       C1302   1.493       .  S
C161       C1218   1.499       .  S
C161        N162   1.360       .  A
C161        N166   1.363       .  A
N162        C163   1.355       .  A
C163       C1190   1.479       .  S
C163        N164   1.354       .  A
N164        C165   1.355       .  A
C165       C1498   1.489       .  S
C165        N166   1.361       .  A
C167       C1155   1.479       .  S
C167        N168   1.360       .  A
C167        N172   1.360       .  A
N168        C169   1.360       .  A
C169       C1127   1.493       .  S
C169        N170   1.356       .  A
N170        C171   1.357       .  A
C171       C1246   1.489       .  S
C171        N172   1.358       .  A
C173       C2310   1.484       .  S
C173        N174   1.361       .  A
C173        N178   1.361       .  A
N174        C175   1.359       .  A
C175       C1442   1.499       .  S
C175        N176   1.357       .  A
N176        C177   1.355       .  A
C177       C1106   1.478       .  S
C177        N178   1.358       .  A
C179       C2275   1.491       .  S
C179        N180   1.362       .  A
C179        N184   1.361       .  A
N180        C181   1.359       .  A
C181       C1078   1.492       .  S
C181        N182   1.354       .  A
N182        C183   1.355       .  A
C183       C1414   1.495       .  S
C183        N184   1.358       .  A
N185        C189   1.363       .  A
N185        C186   1.363       .  A
N185       C2198   1.451       .  S
C186       C1099   1.493       .  S
C186        C187   1.382       .  A
C187        C188   1.373       .  A
C187        H190   1.079       .  S
C188        C189   1.383       .  A
C188        H191   1.080       .  S
C189       C1043   1.495       .  S
C192       C1778   1.485       .  S
C192        N193   1.364       .  A
C192        N197   1.361       .  A
N193        C194   1.361       .  A
C194       C1050   1.490       .  S
C194        N195   1.355       .  A
N195        C196   1.355       .  A
C196       C1323   1.483       .  S
C196        N197   1.357       .  A
C198       C1806   1.497       .  S
C198        N199   1.359       .  A
C198        N203   1.362       .  A
N199        C200   1.357       .  A
C200       C1015   1.480       .  S
C200        N201   1.356       .  A
N201        C202   1.359       .  A
C202       C1274   1.496       .  S
C202        N203   1.362       .  A
N204        C208   1.358       .  A
N204        C205   1.358   1_565  A
N204       C2366   1.444       .  S
C205        C987   1.494       .  S
C205        C206   1.381       .  A
C206        C207   1.380   1_545  A
C206        H209   1.082       .  S
C207        C208   1.384       .  A
C207        H210   1.081       .  S
C208       C1022   1.494       .  S
C211       C2135   1.479       .  S
C211        N212   1.359       .  A
C211        N216   1.360       .  A
N212        C213   1.356       .  A
C213       C1183   1.482       .  S
C213        N214   1.355       .  A
N214        C215   1.355       .  A
C215        C966   1.481       .  S
C215        N216   1.360       .  A
C217       C2114   1.498       .  S
C217        N218   1.360       .  A
C217        N222   1.361       .  A
N218        C219   1.359       .  A
C219       C1134   1.497       .  S
C219        N220   1.359       .  A
N220        C221   1.359       .  A
C221        C994   1.482       .  S
C221        N222   1.359       .  A
N223        C227   1.360   1_455  A
N223        C224   1.360       .  A
N223       C1827   1.450       .  S
C224        C959   1.490       .  S
C224        C225   1.383       .  A
C225        C226   1.373   1_455  A
C225        H228   1.082       .  S
C226        C227   1.382       .  A
C226        H229   1.081       .  S
C227       C1071   1.490       .  S
O230        C246   1.272       .  A
O230       Zn236   1.999       .  S
C231        O247   1.273       .  A
C231        O244   1.277       .  A
C231        C875   1.495       .  S
O232        C245   1.276       .  A
O232       Cd239   2.087       .  S
O233        C251   1.277       .  A
O233       Cd242   2.076       .  S
O234        C248   1.273       .  A
O234       Cd238   2.063       .  S
O235        C246   1.274       .  A
O235       Cd238   2.063       .  S
Zn236       O247   2.006       .  S
Zn236       O249   2.015       .  S
Zn236       O241   1.939       .  S
O237        C248   1.278       .  A
O237       Cd242   2.090       .  S
Cd238       O240   2.075       .  S
Cd238       O241   1.999       .  S
Cd239       O243   2.084       .  S
Cd239       O252   2.068       .  S
Cd239       O241   2.003       .  S
O240        C250   1.275       .  A
O241       Cd242   2.011       .  S
Cd242       O244   2.090       .  S
O243        C250   1.277       .  A
C245        O249   1.272       .  A
C245        C910   1.483       .  S
C246       C1351   1.482       .  S
C248       C1211   1.496       .  S
C250       C1162   1.503       .  S
C251        O252   1.276       .  A
C251        C931   1.492       .  S
C253        C882   1.497       .  S
C253        N254   1.362       .  A
C253        N258   1.366       .  A
N254        C255   1.358       .  A
C255        C847   1.482       .  S
C255        N256   1.352       .  A
N256        C257   1.353       .  A
C257        C819   1.488       .  S
C257        N258   1.361       .  A
C259        C903   1.482       .  S
C259        N260   1.360       .  A
C259        N264   1.362       .  A
N260        C261   1.359       .  A
C261        C791   1.489       .  S
C261        N262   1.356       .  A
N262        C263   1.358       .  A
C263        C763   1.492       .  S
C263        N264   1.361       .  A
N265        C269   1.360   1_565  A
N265        C266   1.360       .  A
N265       C2023   1.449       .  S
C266        C854   1.489       .  S
C266        C267   1.383       .  A
C267        C268   1.373   1_565  A
C267        H270   1.081       .  S
C268        C269   1.383       .  A
C268        H271   1.081       .  S
C269        C742   1.491       .  S
C272       C1575   1.479       .  S
C272        N273   1.359       .  A
C272        N277   1.361       .  A
N273        C274   1.357       .  A
C274        C735   1.485       .  S
C274        N275   1.356       .  A
N275        C276   1.357       .  A
C276        C707   1.494       .  S
C276        N277   1.360       .  A
C278       C1554   1.480       .  S
C278        N279   1.359       .  A
C278        N283   1.362       .  A
N279        C280   1.356       .  A
C280        C651   1.477       .  S
C280        N281   1.355       .  A
N281        C282   1.355       .  A
C282        C686   1.480       .  S
C282        N283   1.361       .  A
N284        C288   1.360       .  A
N284        C285   1.360       .  A
N284        C938   1.448       .  S
C285        C679   1.493       .  S
C285        C286   1.384       .  A
C286        C287   1.376       .  A
C286        H289   1.081       .  S
C287        C288   1.382       .  A
C287        H290   1.081       .  S
C288        C630   1.491       .  S
C291       C1918   1.487       .  S
C291        N292   1.364       .  A
C291        N296   1.363       .  A
N292        C293   1.362       .  A
C293        C595   1.495       .  S
C293        N294   1.353       .  A
N294        C295   1.353       .  A
C295        C623   1.488       .  S
C295        N296   1.360       .  A
C297       C1883   1.475       .  S
C297        N298   1.357       .  A
C297        N302   1.357       .  A
N298        C299   1.355       .  A
C299        C567   1.477       .  S
C299        N300   1.356       .  A
N300        C301   1.358       .  A
C301        C539   1.488       .  S
C301        N302   1.357       .  A
N303        C307   1.359   1_655  A
N303        C304   1.360       .  A
N303       C1694   1.448       .  S
C304        C798   1.495       .  S
C304        C305   1.386       .  A
C305        C306   1.376   1_655  A
C305        H308   1.082       .  S
C306        C307   1.380       .  A
C306        H309   1.081       .  S
C307        C574   1.490       .  S
N310        C314   1.361       .  A
N310        C311   1.362   1_455  A
N310       C1862   1.450       .  S
C311        C511   1.497       .  S
C311        C312   1.383       .  A
C312        C313   1.373   1_655  A
C312        H315   1.082       .  S
C313        C314   1.383       .  A
C313        H316   1.081       .  S
C314        C483   1.491       .  S
C317       C2226   1.485       .  S
C317        N318   1.358       .  A
C317        N322   1.361       .  A
N318        C319   1.357       .  A
C319        C455   1.481       .  S
C319        N320   1.357       .  A
N320        C321   1.358       .  A
C321        C602   1.487       .  S
C321        N322   1.360       .  A
C323       C2254   1.483       .  S
C323        N324   1.360       .  A
C323        N328   1.359       .  A
N324        C325   1.357       .  A
C325        C546   1.478       .  S
C325        N326   1.355       .  A
N326        C327   1.354       .  A
C327        C490   1.478       .  S
C327        N328   1.356       .  A
C329       C2086   1.490       .  S
C329        N330   1.358       .  A
C329        N334   1.360       .  A
N330        C331   1.356       .  A
C331        C427   1.483       .  S
C331        N332   1.359       .  A
N332        C333   1.360       .  A
C333        C826   1.491       .  S
C333        N334   1.360       .  A
C335       C2051   1.478       .  S
C335        N336   1.360       .  A
C335        N340   1.357       .  A
N336        C337   1.360       .  A
C337        C518   1.492       .  S
C337        N338   1.359       .  A
N338        C339   1.359       .  A
C339        C770   1.488       .  S
C339        N340   1.357       .  A
N341        C345   1.362       .  A
N341        C342   1.364   1_545  A
N341       C2331   1.451       .  S
C342        C434   1.497       .  S
C342        C343   1.383       .  A
C343        C344   1.374   1_565  A
C343        H346   1.081       .  S
C344        C345   1.382       .  A
C344        H347   1.080       .  S
C345        C406   1.494       .  S
C348       C1715   1.476       .  S
C348        N349   1.358       .  A
C348        N353   1.358       .  A
N349        C350   1.358       .  A
C350        C714   1.489       .  S
C350        N351   1.360       .  A
N351        C352   1.359       .  A
C352        C399   1.487       .  S
C352        N353   1.358       .  A
C354       C1750   1.480       .  S
C354        N355   1.359       .  A
C354        N359   1.360       .  A
N355        C356   1.357       .  A
C356        C378   1.483       .  S
C356        N357   1.357       .  A
N357        C358   1.359       .  A
C358        C658   1.498       .  S
C358        N359   1.361       .  A
N360        C364   1.360       .  A
N360        C361   1.361       .  A
N360       C2163   1.451       .  S
C361        C371   1.490       .  S
C361        C362   1.381       .  A
C362        C363   1.374       .  A
C362        H365   1.082       .  S
C363        C364   1.383       .  A
C363        H366   1.082       .  S
C364        C462   1.490       .  S
C367        C368   1.409       .  A
C367        C372   1.408       .  A
C367        C385   1.452       .  S
C368        C373   1.495       .  S
C368        C369   1.409       .  A
C369        C370   1.411       .  A
C369        C374   1.450       .  S
C370        C371   1.417       .  A
C370        C386   1.451       .  S
C371        C372   1.413       .  A
C372        C375   1.448       .  S
C373        C376   1.412       .  A
C373        C380   1.410       .  A
C374        N391   1.157       .  T
C375        N393   1.157       .  T
C376        C377   1.408       .  A
C376        C381   1.452       .  S
C377        C378   1.413       .  A
C377        C383   1.451       .  S
C378        C379   1.414       .  A
C379        C380   1.412       .  A
C379        C382   1.449       .  S
C380        C384   1.450       .  S
C381        N388   1.157       .  T
C382        N389   1.157       .  T
C383        N387   1.157       .  T
C384        N390   1.157       .  T
C385        N394   1.157       .  T
C386        N392   1.157       .  T
C395        C396   1.410       .  A
C395        C400   1.411       .  A
C395        C413   1.450       .  S
C396        C401   1.497       .  S
C396        C397   1.410       .  A
C397        C398   1.411       .  A
C397        C402   1.450       .  S
C398        C399   1.413       .  A
C398        C414   1.450       .  S
C399        C400   1.415       .  A
C400        C403   1.451       .  S
C401        C404   1.410       .  A
C401        C408   1.410       .  A
C402        N419   1.157       .  T
C403        N421   1.157       .  T
C404        C405   1.414       .  A
C404        C409   1.449       .  S
C405        C406   1.414       .  A
C405        C411   1.448       .  S
C406        C407   1.416       .  A
C407        C408   1.408       .  A
C407        C410   1.452       .  S
C408        C412   1.452       .  S
C409        N416   1.157       .  T
C410        N417   1.157       .  T
C411        N415   1.157       .  T
C412        N418   1.157       .  T
C413        N422   1.157       .  T
C414        N420   1.157       .  T
C423        C424   1.413       .  A
C423        C428   1.410       .  A
C423        C441   1.451       .  S
C424        C429   1.498       .  S
C424        C425   1.411       .  A
C425        C426   1.412       .  A
C425        C430   1.450       .  S
C426        C427   1.413       .  A
C426        C442   1.450       .  S
C427        C428   1.412       .  A
C428        C431   1.451       .  S
C429        C432   1.409       .  A
C429        C436   1.409       .  A
C430        N447   1.157       .  T
C431        N449   1.157       .  T
C432        C433   1.412       .  A
C432        C437   1.452       .  S
C433        C434   1.415       .  A
C433        C439   1.447       .  S
C434        C435   1.420       .  A
C435        C436   1.412       .  A
C435        C438   1.451       .  S
C436        C440   1.451       .  S
C437        N444   1.157       .  T
C438        N445   1.157       .  T
C439        N443   1.156       .  T
C440        N446   1.157       .  T
C441        N450   1.157       .  T
C442        N448   1.157       .  T
C451        C452   1.411       .  A
C451        C456   1.411       .  A
C451        C469   1.450       .  S
C452        C457   1.494       .  S
C452        C453   1.411       .  A
C453        C454   1.409       .  A
C453        C458   1.451       .  S
C454        C455   1.413       .  A
C454        C470   1.451       .  S
C455        C456   1.412       .  A
C456        C459   1.450       .  S
C457        C460   1.409       .  A
C457        C464   1.410       .  A
C458        N475   1.157       .  T
C459        N477   1.157       .  T
C460        C461   1.407       .  A
C460        C465   1.452       .  S
C461        C462   1.416       .  A
C461        C467   1.452       .  S
C462        C463   1.413       .  A
C463        C464   1.413       .  A
C463        C466   1.449       .  S
C464        C468   1.450       .  S
C465        N472   1.157       .  T
C466        N473   1.157       .  T
C467        N471   1.157       .  T
C468        N474   1.157       .  T
C469        N478   1.157       .  T
C470        N476   1.157       .  T
C479        C480   1.410       .  A
C479        C484   1.413       .  A
C479        C497   1.450       .  S
C480        C485   1.492       .  S
C480        C481   1.408       .  A
C481        C482   1.406       .  A
C481        C486   1.452       .  S
C482        C483   1.417       .  A
C482        C498   1.452       .  S
C483        C484   1.414       .  A
C484        C487   1.448       .  S
C485        C488   1.411       .  A
C485        C492   1.411       .  A
C486        N503   1.157       .  T
C487        N505   1.157       .  T
C488        C489   1.408       .  A
C488        C493   1.451       .  S
C489        C490   1.412       .  A
C489        C495   1.451       .  S
C490        C491   1.413       .  A
C491        C492   1.409       .  A
C491        C494   1.451       .  S
C492        C496   1.450       .  S
C493        N500   1.157       .  T
C494        N501   1.157       .  T
C495        N499   1.157       .  T
C496        N502   1.157       .  T
C497        N506   1.157       .  T
C498        N504   1.157       .  T
C507        C508   1.408       .  A
C507        C512   1.411       .  A
C507        C525   1.451       .  S
C508        C513   1.499       .  S
C508        C509   1.409       .  A
C509        C510   1.413       .  A
C509        C514   1.451       .  S
C510        C511   1.416       .  A
C510        C526   1.448       .  S
C511        C512   1.418       .  A
C512        C515   1.451       .  S
C513        C516   1.411       .  A
C513        C520   1.410       .  A
C514        N531   1.157       .  T
C515        N533   1.157       .  T
C516        C517   1.412       .  A
C516        C521   1.451       .  S
C517        C518   1.417       .  A
C517        C523   1.452       .  S
C518        C519   1.416       .  A
C519        C520   1.413       .  A
C519        C522   1.450       .  S
C520        C524   1.450       .  S
C521        N528   1.157       .  T
C522        N529   1.157       .  T
C523        N527   1.157       .  T
C524        N530   1.157       .  T
C525        N534   1.157       .  T
C526        N532   1.157       .  T
C535        C536   1.410       .  A
C535        C540   1.408       .  A
C535        C553   1.451       .  S
C536        C541   1.492       .  S
C536        C537   1.409       .  A
C537        C538   1.410       .  A
C537        C542   1.451       .  S
C538        C539   1.419       .  A
C538        C554   1.451       .  S
C539        C540   1.416       .  A
C540        C543   1.452       .  S
C541        C544   1.411       .  A
C541        C548   1.411       .  A
C542        N559   1.157       .  T
C543        N561   1.157       .  T
C544        C545   1.411       .  A
C544        C549   1.450       .  S
C545        C546   1.412       .  A
C545        C551   1.450       .  S
C546        C547   1.413       .  A
C547        C548   1.406       .  A
C547        C550   1.452       .  S
C548        C552   1.452       .  S
C549        N556   1.157       .  T
C550        N557   1.157       .  T
C551        N555   1.157       .  T
C552        N558   1.157       .  T
C553        N562   1.157       .  T
C554        N560   1.158       .  T
C563        C564   1.412       .  A
C563        C568   1.407       .  A
C563        C581   1.451       .  S
C564        C569   1.493       .  S
C564        C565   1.410       .  A
C565        C566   1.411       .  A
C565        C570   1.449       .  S
C566        C567   1.412       .  A
C566        C582   1.450       .  S
C567        C568   1.412       .  A
C568        C571   1.452       .  S
C569        C572   1.409       .  A
C569        C576   1.409       .  A
C570        N587   1.157       .  T
C571        N589   1.157       .  T
C572        C573   1.409       .  A
C572        C577   1.451       .  S
C573        C574   1.415       .  A
C573        C579   1.450       .  S
C574        C575   1.414       .  A
C575        C576   1.410       .  A
C575        C578   1.449       .  S
C576        C580   1.451       .  S
C577        N584   1.157       .  T
C578        N585   1.157       .  T
C579        N583   1.157       .  T
C580        N586   1.157       .  T
C581        N590   1.157       .  T
C582        N588   1.157       .  T
C591        C592   1.409       .  A
C591        C596   1.410       .  A
C591        C609   1.451       .  S
C592        C597   1.499       .  S
C592        C593   1.411       .  A
C593        C594   1.415       .  A
C593        C598   1.450       .  S
C594        C595   1.418       .  A
C594        C610   1.450       .  S
C595        C596   1.419       .  A
C596        C599   1.452       .  S
C597        C600   1.411       .  A
C597        C604   1.411       .  A
C598        N615   1.157       .  T
C599        N617   1.157       .  T
C600        C601   1.410       .  A
C600        C605   1.451       .  S
C601        C602   1.415       .  A
C601        C607   1.452       .  S
C602        C603   1.414       .  A
C603        C604   1.414       .  A
C603        C606   1.450       .  S
C604        C608   1.450       .  S
C605        N612   1.157       .  T
C606        N613   1.157       .  T
C607        N611   1.157       .  T
C608        N614   1.157       .  T
C609        N618   1.157       .  T
C610        N616   1.157       .  T
C619        C620   1.409       .  A
C619        C624   1.407       .  A
C619        C637   1.452       .  S
C620        C625   1.495       .  S
C620        C621   1.411       .  A
C621        C622   1.415       .  A
C621        C626   1.450       .  S
C622        C623   1.415       .  A
C622        C638   1.450       .  S
C623        C624   1.417       .  A
C624        C627   1.452       .  S
C625        C628   1.410       .  A
C625        C632   1.409       .  A
C626        N643   1.157       .  T
C627        N645   1.157       .  T
C628        C629   1.412       .  A
C628        C633   1.451       .  S
C629        C630   1.414       .  A
C629        C635   1.449       .  S
C630        C631   1.416       .  A
C631        C632   1.410       .  A
C631        C634   1.451       .  S
C632        C636   1.451       .  S
C633        N640   1.157       .  T
C634        N641   1.157       .  T
C635        N639   1.157       .  T
C636        N642   1.157       .  T
C637        N646   1.157       .  T
C638        N644   1.157       .  T
C647        C648   1.411       .  A
C647        C652   1.408       .  A
C647        C665   1.451       .  S
C648        C653   1.495       .  S
C648        C649   1.412       .  A
C649        C650   1.412       .  A
C649        C654   1.449       .  S
C650        C651   1.410       .  A
C650        C666   1.450       .  S
C651        C652   1.412       .  A
C652        C655   1.452       .  S
C653        C656   1.408       .  A
C653        C660   1.408       .  A
C654        N671   1.157       .  T
C655        N673   1.157       .  T
C656        C657   1.410       .  A
C656        C661   1.451       .  S
C657        C658   1.421       .  A
C657        C663   1.452       .  S
C658        C659   1.420       .  A
C659        C660   1.413       .  A
C659        C662   1.450       .  S
C660        C664   1.451       .  S
C661        N668   1.157       .  T
C662        N669   1.157       .  T
C663        N667   1.157       .  T
C664        N670   1.157       .  T
C665        N674   1.157       .  T
C666        N672   1.157       .  T
C675        C676   1.410       .  A
C675        C680   1.408       .  A
C675        C693   1.452       .  S
C676        C681   1.496       .  S
C676        C677   1.409       .  A
C677        C678   1.413       .  A
C677        C682   1.450       .  S
C678        C679   1.414       .  A
C678        C694   1.448       .  S
C679        C680   1.417       .  A
C680        C683   1.452       .  S
C681        C684   1.411       .  A
C681        C688   1.412       .  A
C682        N699   1.157       .  T
C683        N701   1.157       .  T
C684        C685   1.411       .  A
C684        C689   1.450       .  S
C685        C686   1.412       .  A
C685        C691   1.450       .  S
C686        C687   1.412       .  A
C687        C688   1.410       .  A
C687        C690   1.451       .  S
C688        C692   1.450       .  S
C689        N696   1.157       .  T
C690        N697   1.157       .  T
C691        N695   1.157       .  T
C692        N698   1.157       .  T
C693        N702   1.157       .  T
C694        N700   1.157       .  T
C703        C704   1.408       .  A
C703        C708   1.410       .  A
C703        C721   1.451       .  S
C704        C709   1.496       .  S
C704        C705   1.409       .  A
C705        C706   1.413       .  A
C705        C710   1.450       .  S
C706        C707   1.418       .  A
C706        C722   1.450       .  S
C707        C708   1.418       .  A
C708        C711   1.452       .  S
C709        C712   1.411       .  A
C709        C716   1.410       .  A
C710        N727   1.157       .  T
C711        N729   1.157       .  T
C712        C713   1.409       .  A
C712        C717   1.451       .  S
C713        C714   1.415       .  A
C713        C719   1.452       .  S
C714        C715   1.416       .  A
C715        C716   1.413       .  A
C715        C718   1.450       .  S
C716        C720   1.450       .  S
C717        N724   1.157       .  T
C718        N725   1.157       .  T
C719        N723   1.157       .  T
C720        N726   1.157       .  T
C721        N730   1.157       .  T
C722        N728   1.157       .  T
C731        C732   1.410       .  A
C731        C736   1.413       .  A
C731        C749   1.450       .  S
C732        C737   1.494       .  S
C732        C733   1.411       .  A
C733        C734   1.407       .  A
C733        C738   1.452       .  S
C734        C735   1.414       .  A
C734        C750   1.452       .  S
C735        C736   1.415       .  A
C736        C739   1.450       .  S
C737        C740   1.408       .  A
C737        C744   1.410       .  A
C738        N755   1.157       .  T
C739        N757   1.157       .  T
C740        C741   1.408       .  A
C740        C745   1.451       .  S
C741        C742   1.417       .  A
C741        C747   1.452       .  S
C742        C743   1.415       .  A
C743        C744   1.412       .  A
C743        C746   1.448       .  S
C744        C748   1.451       .  S
C745        N752   1.157       .  T
C746        N753   1.157       .  T
C747        N751   1.157       .  T
C748        N754   1.157       .  T
C749        N758   1.157       .  T
C750        N756   1.157       .  T
C759        C760   1.410       .  A
C759        C764   1.408       .  A
C759        C777   1.452       .  S
C760        C765   1.497       .  S
C760        C761   1.410       .  A
C761        C762   1.416       .  A
C761        C766   1.449       .  S
C762        C763   1.417       .  A
C762        C778   1.450       .  S
C763        C764   1.417       .  A
C764        C767   1.452       .  S
C765        C768   1.410       .  A
C765        C772   1.410       .  A
C766        N783   1.157       .  T
C767        N785   1.157       .  T
C768        C769   1.412       .  A
C768        C773   1.450       .  S
C769        C770   1.417       .  A
C769        C775   1.451       .  S
C770        C771   1.413       .  A
C771        C772   1.410       .  A
C771        C774   1.451       .  S
C772        C776   1.450       .  S
C773        N780   1.157       .  T
C774        N781   1.157       .  T
C775        N779   1.157       .  T
C776        N782   1.157       .  T
C777        N786   1.157       .  T
C778        N784   1.157       .  T
C787        C788   1.411       .  A
C787        C792   1.411       .  A
C787        C805   1.451       .  S
C788        C793   1.499       .  S
C788        C789   1.411       .  A
C789        C790   1.413       .  A
C789        C794   1.451       .  S
C790        C791   1.416       .  A
C790        C806   1.451       .  S
C791        C792   1.414       .  A
C792        C795   1.451       .  S
C793        C796   1.411       .  A
C793        C800   1.410       .  A
C794        N811   1.157       .  T
C795        N813   1.157       .  T
C796        C797   1.414       .  A
C796        C801   1.450       .  S
C797        C798   1.415       .  A
C797        C803   1.448       .  S
C798        C799   1.418       .  A
C799        C800   1.408       .  A
C799        C802   1.453       .  S
C800        C804   1.452       .  S
C801        N808   1.157       .  T
C802        N809   1.157       .  T
C803        N807   1.157       .  T
C804        N810   1.157       .  T
C805        N814   1.157       .  T
C806        N812   1.157       .  T
C815        C816   1.410       .  A
C815        C820   1.409       .  A
C815        C833   1.452       .  S
C816        C821   1.500       .  S
C816        C817   1.413       .  A
C817        C818   1.415       .  A
C817        C822   1.449       .  S
C818        C819   1.413       .  A
C818        C834   1.450       .  S
C819        C820   1.416       .  A
C820        C823   1.453       .  S
C821        C824   1.411       .  A
C821        C828   1.411       .  A
C822        N839   1.157       .  T
C823        N841   1.157       .  T
C824        C825   1.412       .  A
C824        C829   1.451       .  S
C825        C826   1.415       .  A
C825        C831   1.451       .  S
C826        C827   1.416       .  A
C827        C828   1.412       .  A
C827        C830   1.451       .  S
C828        C832   1.450       .  S
C829        N836   1.157       .  T
C830        N837   1.157       .  T
C831        N835   1.157       .  T
C832        N838   1.157       .  T
C833        N842   1.157       .  T
C834        N840   1.157       .  T
C843        C844   1.412       .  A
C843        C848   1.411       .  A
C843        C861   1.451       .  S
C844        C849   1.494       .  S
C844        C845   1.410       .  A
C845        C846   1.408       .  A
C845        C850   1.452       .  S
C846        C847   1.413       .  A
C846        C862   1.451       .  S
C847        C848   1.414       .  A
C848        C851   1.451       .  S
C849        C852   1.410       .  A
C849        C856   1.411       .  A
C850        N867   1.157       .  T
C851        N869   1.157       .  T
C852        C853   1.411       .  A
C852        C857   1.450       .  S
C853        C854   1.413       .  A
C853        C859   1.448       .  S
C854        C855   1.416       .  A
C855        C856   1.406       .  A
C855        C858   1.453       .  S
C856        C860   1.452       .  S
C857        N864   1.157       .  T
C858        N865   1.157       .  T
C859        N863   1.157       .  T
C860        N866   1.157       .  T
C861        N870   1.157       .  T
C862        N868   1.157       .  T
C871        C872   1.412       .  A
C871        C876   1.413       .  A
C871        C889   1.451       .  S
C872        C877   1.502       .  S
C872        C873   1.411       .  A
C873        C874   1.412       .  A
C873        C878   1.451       .  S
C874        C875   1.419       .  A
C874        C890   1.452       .  S
C875        C876   1.417       .  A
C876        C879   1.451       .  S
C877        C880   1.411       .  A
C877        C884   1.410       .  A
C878        N895   1.157       .  T
C879        N897   1.157       .  T
C880        C881   1.413       .  A
C880        C885   1.451       .  S
C881        C882   1.418       .  A
C881        C887   1.451       .  S
C882        C883   1.419       .  A
C883        C884   1.413       .  A
C883        C886   1.451       .  S
C884        C888   1.451       .  S
C885        N892   1.157       .  T
C886        N893   1.157       .  T
C887        N891   1.157       .  T
C888        N894   1.157       .  T
C889        N898   1.157       .  T
C890        N896   1.158       .  T
C899        C900   1.414       .  A
C899        C904   1.411       .  A
C899        C917   1.450       .  S
C900        C905   1.503       .  S
C900        C901   1.414       .  A
C901        C902   1.413       .  A
C901        C906   1.450       .  S
C902        C903   1.411       .  A
C902        C918   1.450       .  S
C903        C904   1.411       .  A
C904        C907   1.451       .  S
C905        C908   1.414       .  A
C905        C912   1.413       .  A
C906        N923   1.157       .  T
C907        N925   1.157       .  T
C908        C909   1.413       .  A
C908        C913   1.450       .  S
C909        C910   1.411       .  A
C909        C915   1.450       .  S
C910        C911   1.412       .  A
C911        C912   1.411       .  A
C911        C914   1.451       .  S
C912        C916   1.450       .  S
C913        N920   1.157       .  T
C914        N921   1.157       .  T
C915        N919   1.157       .  T
C916        N922   1.157       .  T
C917        N926   1.157       .  T
C918        N924   1.157       .  T
C927        C928   1.408       .  A
C927        C932   1.410       .  A
C927        C945   1.452       .  S
C928        C933   1.494       .  S
C928        C929   1.410       .  A
C929        C930   1.411       .  A
C929        C934   1.451       .  S
C930        C931   1.418       .  A
C930        C946   1.451       .  S
C931        C932   1.419       .  A
C932        C935   1.451       .  S
C933        C936   1.409       .  A
C933        C940   1.407       .  A
C934        N951   1.157       .  T
C935        N953   1.157       .  T
C936        C937   1.411       .  A
C936        C941   1.451       .  S
C937        C938   1.415       .  A
C937        C943   1.447       .  S
C938        C939   1.414       .  A
C939        C940   1.408       .  A
C939        C942   1.447       .  S
C940        C944   1.451       .  S
C941        N948   1.157       .  T
C942        N949   1.157       .  T
C943        N947   1.157       .  T
C944        N950   1.157       .  T
C945        N954   1.157       .  T
C946        N952   1.157       .  T
C955        C956   1.413       .  A
C955        C960   1.407       .  A
C955        C973   1.453       .  S
C956        C961   1.497       .  S
C956        C957   1.411       .  A
C957        C958   1.411       .  A
C957        C962   1.450       .  S
C958        C959   1.413       .  A
C958        C974   1.448       .  S
C959        C960   1.415       .  A
C960        C963   1.453       .  S
C961        C964   1.413       .  A
C961        C968   1.412       .  A
C962        N979   1.157       .  T
C963        N981   1.157       .  T
C964        C965   1.410       .  A
C964        C969   1.451       .  S
C965        C966   1.413       .  A
C965        C971   1.451       .  S
C966        C967   1.413       .  A
C967        C968   1.409       .  A
C967        C970   1.451       .  S
C968        C972   1.452       .  S
C969        N976   1.157       .  T
C970        N977   1.157       .  T
C971        N975   1.157       .  T
C972        N978   1.157       .  T
C973        N982   1.157       .  T
C974        N980   1.157       .  T
C983        C984   1.411       .  A
C983        C988   1.414       .  A
C983       C1001   1.450       .  S
C984        C989   1.500       .  S
C984        C985   1.411       .  A
C985        C986   1.411       .  A
C985        C990   1.452       .  S
C986        C987   1.413       .  A
C986       C1002   1.449       .  S
C987        C988   1.415       .  A
C988        C991   1.449       .  S
C989        C992   1.413       .  A
C989        C996   1.412       .  A
C990       N1007   1.157       .  T
C991       N1009   1.157       .  T
C992        C993   1.411       .  A
C992        C997   1.451       .  S
C993        C994   1.411       .  A
C993        C999   1.450       .  S
C994        C995   1.412       .  A
C995        C996   1.413       .  A
C995        C998   1.450       .  S
C996       C1000   1.449       .  S
C997       N1004   1.157       .  T
C998       N1005   1.157       .  T
C999       N1003   1.157       .  T
C1000      N1006   1.157       .  T
C1001      N1010   1.157       .  T
C1002      N1008   1.157       .  T
C1011      C1012   1.412       .  A
C1011      C1016   1.412       .  A
C1011      C1029   1.451       .  S
C1012      C1017   1.497       .  S
C1012      C1013   1.411       .  A
C1013      C1014   1.410       .  A
C1013      C1018   1.450       .  S
C1014      C1015   1.412       .  A
C1014      C1030   1.452       .  S
C1015      C1016   1.411       .  A
C1016      C1019   1.450       .  S
C1017      C1020   1.410       .  A
C1017      C1024   1.410       .  A
C1018      N1035   1.157       .  T
C1019      N1037   1.157       .  T
C1020      C1021   1.413       .  A
C1020      C1025   1.451       .  S
C1021      C1022   1.414       .  A
C1021      C1027   1.447       .  S
C1022      C1023   1.416       .  A
C1023      C1024   1.410       .  A
C1023      C1026   1.452       .  S
C1024      C1028   1.451       .  S
C1025      N1032   1.157       .  T
C1026      N1033   1.157       .  T
C1027      N1031   1.157       .  T
C1028      N1034   1.157       .  T
C1029      N1038   1.157       .  T
C1030      N1036   1.157       .  T
C1039      C1040   1.412       .  A
C1039      C1044   1.414       .  A
C1039      C1057   1.451       .  S
C1040      C1045   1.500       .  S
C1040      C1041   1.409       .  A
C1041      C1042   1.410       .  A
C1041      C1046   1.451       .  S
C1042      C1043   1.418       .  A
C1042      C1058   1.452       .  S
C1043      C1044   1.414       .  A
C1044      C1047   1.448       .  S
C1045      C1048   1.411       .  A
C1045      C1052   1.411       .  A
C1046      N1063   1.157       .  T
C1047      N1065   1.157       .  T
C1048      C1049   1.415       .  A
C1048      C1053   1.450       .  S
C1049      C1050   1.415       .  A
C1049      C1055   1.450       .  S
C1050      C1051   1.416       .  A
C1051      C1052   1.409       .  A
C1051      C1054   1.452       .  S
C1052      C1056   1.452       .  S
C1053      N1060   1.157       .  T
C1054      N1061   1.157       .  T
C1055      N1059   1.157       .  T
C1056      N1062   1.157       .  T
C1057      N1066   1.157       .  T
C1058      N1064   1.157       .  T
C1067      C1068   1.409       .  A
C1067      C1072   1.411       .  A
C1067      C1085   1.452       .  S
C1068      C1073   1.494       .  S
C1068      C1069   1.408       .  A
C1069      C1070   1.409       .  A
C1069      C1074   1.451       .  S
C1070      C1071   1.417       .  A
C1070      C1086   1.451       .  S
C1071      C1072   1.414       .  A
C1072      C1075   1.448       .  S
C1073      C1076   1.408       .  A
C1073      C1080   1.409       .  A
C1074      N1091   1.157       .  T
C1075      N1093   1.157       .  T
C1076      C1077   1.412       .  A
C1076      C1081   1.450       .  S
C1077      C1078   1.418       .  A
C1077      C1083   1.450       .  S
C1078      C1079   1.420       .  A
C1079      C1080   1.408       .  A
C1079      C1082   1.453       .  S
C1080      C1084   1.452       .  S
C1081      N1088   1.157       .  T
C1082      N1089   1.158       .  T
C1083      N1087   1.157       .  T
C1084      N1090   1.157       .  T
C1085      N1094   1.157       .  T
C1086      N1092   1.157       .  T
C1095      C1096   1.409       .  A
C1095      C1100   1.409       .  A
C1095      C1113   1.452       .  S
C1096      C1101   1.495       .  S
C1096      C1097   1.409       .  A
C1097      C1098   1.413       .  A
C1097      C1102   1.450       .  S
C1098      C1099   1.415       .  A
C1098      C1114   1.448       .  S
C1099      C1100   1.417       .  A
C1100      C1103   1.452       .  S
C1101      C1104   1.412       .  A
C1101      C1108   1.411       .  A
C1102      N1119   1.157       .  T
C1103      N1121   1.157       .  T
C1104      C1105   1.408       .  A
C1104      C1109   1.451       .  S
C1105      C1106   1.411       .  A
C1105      C1111   1.451       .  S
C1106      C1107   1.410       .  A
C1107      C1108   1.413       .  A
C1107      C1110   1.450       .  S
C1108      C1112   1.449       .  S
C1109      N1116   1.157       .  T
C1110      N1117   1.157       .  T
C1111      N1115   1.157       .  T
C1112      N1118   1.157       .  T
C1113      N1122   1.157       .  T
C1114      N1120   1.157       .  T
C1123      C1124   1.410       .  A
C1123      C1128   1.411       .  A
C1123      C1141   1.451       .  S
C1124      C1129   1.499       .  S
C1124      C1125   1.410       .  A
C1125      C1126   1.413       .  A
C1125      C1130   1.450       .  S
C1126      C1127   1.418       .  A
C1126      C1142   1.451       .  S
C1127      C1128   1.416       .  A
C1128      C1131   1.451       .  S
C1129      C1132   1.410       .  A
C1129      C1136   1.408       .  A
C1130      N1147   1.157       .  T
C1131      N1149   1.157       .  T
C1132      C1133   1.412       .  A
C1132      C1137   1.452       .  S
C1133      C1134   1.418       .  A
C1133      C1139   1.450       .  S
C1134      C1135   1.419       .  A
C1135      C1136   1.413       .  A
C1135      C1138   1.451       .  S
C1136      C1140   1.450       .  S
C1137      N1144   1.157       .  T
C1138      N1145   1.157       .  T
C1139      N1143   1.157       .  T
C1140      N1146   1.157       .  T
C1141      N1150   1.157       .  T
C1142      N1148   1.157       .  T
C1151      C1152   1.413       .  A
C1151      C1156   1.413       .  A
C1151      C1169   1.450       .  S
C1152      C1157   1.498       .  S
C1152      C1153   1.412       .  A
C1153      C1154   1.409       .  A
C1153      C1158   1.450       .  S
C1154      C1155   1.411       .  A
C1154      C1170   1.451       .  S
C1155      C1156   1.411       .  A
C1156      C1159   1.450       .  S
C1157      C1160   1.408       .  A
C1157      C1164   1.408       .  A
C1158      N1175   1.157       .  T
C1159      N1177   1.157       .  T
C1160      C1161   1.413       .  A
C1160      C1165   1.452       .  S
C1161      C1162   1.422       .  A
C1161      C1167   1.451       .  S
C1162      C1163   1.422       .  A
C1163      C1164   1.413       .  A
C1163      C1166   1.452       .  S
C1164      C1168   1.451       .  S
C1165      N1172   1.157       .  T
C1166      N1173   1.158       .  T
C1167      N1171   1.157       .  T
C1168      N1174   1.157       .  T
C1169      N1178   1.157       .  T
C1170      N1176   1.157       .  T
C1179      C1180   1.410       .  A
C1179      C1184   1.408       .  A
C1179      C1197   1.451       .  S
C1180      C1185   1.492       .  S
C1180      C1181   1.410       .  A
C1181      C1182   1.410       .  A
C1181      C1186   1.450       .  S
C1182      C1183   1.413       .  A
C1182      C1198   1.450       .  S
C1183      C1184   1.415       .  A
C1184      C1187   1.452       .  S
C1185      C1188   1.410       .  A
C1185      C1192   1.410       .  A
C1186      N1203   1.157       .  T
C1187      N1205   1.157       .  T
C1188      C1189   1.411       .  A
C1188      C1193   1.450       .  S
C1189      C1190   1.413       .  A
C1189      C1195   1.450       .  S
C1190      C1191   1.412       .  A
C1191      C1192   1.407       .  A
C1191      C1194   1.451       .  S
C1192      C1196   1.451       .  S
C1193      N1200   1.157       .  T
C1194      N1201   1.157       .  T
C1195      N1199   1.157       .  T
C1196      N1202   1.157       .  T
C1197      N1206   1.157       .  T
C1198      N1204   1.157       .  T
C1207      C1208   1.409       .  A
C1207      C1212   1.414       .  A
C1207      C1225   1.450       .  S
C1208      C1213   1.497       .  S
C1208      C1209   1.409       .  A
C1209      C1210   1.410       .  A
C1209      C1214   1.452       .  S
C1210      C1211   1.420       .  A
C1210      C1226   1.452       .  S
C1211      C1212   1.418       .  A
C1212      C1215   1.450       .  S
C1213      C1216   1.407       .  A
C1213      C1220   1.409       .  A
C1214      N1231   1.157       .  T
C1215      N1233   1.157       .  T
C1216      C1217   1.412       .  A
C1216      C1221   1.451       .  S
C1217      C1218   1.422       .  A
C1217      C1223   1.452       .  S
C1218      C1219   1.420       .  A
C1219      C1220   1.411       .  A
C1219      C1222   1.451       .  S
C1220      C1224   1.452       .  S
C1221      N1228   1.157       .  T
C1222      N1229   1.158       .  T
C1223      N1227   1.158       .  T
C1224      N1230   1.157       .  T
C1225      N1234   1.157       .  T
C1226      N1232   1.158       .  T
C1235      C1236   1.408       .  A
C1235      C1240   1.410       .  A
C1235      C1253   1.451       .  S
C1236      C1241   1.495       .  S
C1236      C1237   1.409       .  A
C1237      C1238   1.411       .  A
C1237      C1242   1.452       .  S
C1238      C1239   1.415       .  A
C1238      C1254   1.448       .  S
C1239      C1240   1.419       .  A
C1240      C1243   1.451       .  S
C1241      C1244   1.410       .  A
C1241      C1248   1.409       .  A
C1242      N1259   1.157       .  T
C1243      N1261   1.157       .  T
C1244      C1245   1.413       .  A
C1244      C1249   1.450       .  S
C1245      C1246   1.416       .  A
C1245      C1251   1.450       .  S
C1246      C1247   1.417       .  A
C1247      C1248   1.407       .  A
C1247      C1250   1.452       .  S
C1248      C1252   1.452       .  S
C1249      N1256   1.157       .  T
C1250      N1257   1.157       .  T
C1251      N1255   1.157       .  T
C1252      N1258   1.157       .  T
C1253      N1262   1.157       .  T
C1254      N1260   1.157       .  T
C1263      C1264   1.410       .  A
C1263      C1268   1.414       .  A
C1263      C1281   1.450       .  S
C1264      C1269   1.500       .  S
C1264      C1265   1.409       .  A
C1265      C1266   1.412       .  A
C1265      C1270   1.451       .  S
C1266      C1267   1.419       .  A
C1266      C1282   1.450       .  S
C1267      C1268   1.418       .  A
C1268      C1271   1.450       .  S
C1269      C1272   1.410       .  A
C1269      C1276   1.410       .  A
C1270      N1287   1.157       .  T
C1271      N1289   1.157       .  T
C1272      C1273   1.411       .  A
C1272      C1277   1.452       .  S
C1273      C1274   1.419       .  A
C1273      C1279   1.452       .  S
C1274      C1275   1.417       .  A
C1275      C1276   1.415       .  A
C1275      C1278   1.450       .  S
C1276      C1280   1.450       .  S
C1277      N1284   1.157       .  T
C1278      N1285   1.157       .  T
C1279      N1283   1.158       .  T
C1280      N1286   1.157       .  T
C1281      N1290   1.157       .  T
C1282      N1288   1.157       .  T
C1291      C1292   1.411       .  A
C1291      C1296   1.410       .  A
C1291      C1309   1.451       .  S
C1292      C1297   1.493       .  S
C1292      C1293   1.409       .  A
C1293      C1294   1.409       .  A
C1293      C1298   1.450       .  S
C1294      C1295   1.411       .  A
C1294      C1310   1.450       .  S
C1295      C1296   1.412       .  A
C1296      C1299   1.449       .  S
C1297      C1300   1.408       .  A
C1297      C1304   1.409       .  A
C1298      N1315   1.157       .  T
C1299      N1317   1.157       .  T
C1300      C1301   1.411       .  A
C1300      C1305   1.450       .  S
C1301      C1302   1.414       .  A
C1301      C1307   1.448       .  S
C1302      C1303   1.418       .  A
C1303      C1304   1.408       .  A
C1303      C1306   1.452       .  S
C1304      C1308   1.452       .  S
C1305      N1312   1.157       .  T
C1306      N1313   1.157       .  T
C1307      N1311   1.157       .  T
C1308      N1314   1.157       .  T
C1309      N1318   1.157       .  T
C1310      N1316   1.157       .  T
C1319      C1320   1.409       .  A
C1319      C1324   1.407       .  A
C1319      C1337   1.451       .  S
C1320      C1325   1.493       .  S
C1320      C1321   1.410       .  A
C1321      C1322   1.413       .  A
C1321      C1326   1.450       .  S
C1322      C1323   1.415       .  A
C1322      C1338   1.450       .  S
C1323      C1324   1.414       .  A
C1324      C1327   1.451       .  S
C1325      C1328   1.408       .  A
C1325      C1332   1.410       .  A
C1326      N1343   1.157       .  T
C1327      N1345   1.157       .  T
C1328      C1329   1.411       .  A
C1328      C1333   1.450       .  S
C1329      C1330   1.417       .  A
C1329      C1335   1.451       .  S
C1330      C1331   1.416       .  A
C1331      C1332   1.408       .  A
C1331      C1334   1.452       .  S
C1332      C1336   1.452       .  S
C1333      N1340   1.157       .  T
C1334      N1341   1.158       .  T
C1335      N1339   1.157       .  T
C1336      N1342   1.157       .  T
C1337      N1346   1.157       .  T
C1338      N1344   1.157       .  T
C1347      C1348   1.409       .  A
C1347      C1352   1.408       .  A
C1347      C1365   1.451       .  S
C1348      C1353   1.488       .  S
C1348      C1349   1.409       .  A
C1349      C1350   1.407       .  A
C1349      C1354   1.452       .  S
C1350      C1351   1.415       .  A
C1350      C1366   1.450       .  S
C1351      C1352   1.416       .  A
C1352      C1355   1.452       .  S
C1353      C1356   1.408       .  A
C1353      C1360   1.407       .  A
C1354      N1371   1.157       .  T
C1355      N1373   1.157       .  T
C1356      C1357   1.407       .  A
C1356      C1361   1.452       .  S
C1357      C1358   1.415       .  A
C1357      C1363   1.448       .  S
C1358      C1359   1.416       .  A
C1359      C1360   1.407       .  A
C1359      C1362   1.447       .  S
C1360      C1364   1.452       .  S
C1361      N1368   1.157       .  T
C1362      N1369   1.157       .  T
C1363      N1367   1.157       .  T
C1364      N1370   1.157       .  T
C1365      N1374   1.157       .  T
C1366      N1372   1.157       .  T
C1375      C1376   1.409       .  A
C1375      C1380   1.413       .  A
C1375      C1393   1.450       .  S
C1376      C1381   1.494       .  S
C1376      C1377   1.409       .  A
C1377      C1378   1.408       .  A
C1377      C1382   1.452       .  S
C1378      C1379   1.417       .  A
C1378      C1394   1.452       .  S
C1379      C1380   1.415       .  A
C1380      C1383   1.448       .  S
C1381      C1384   1.411       .  A
C1381      C1388   1.411       .  A
C1382      N1399   1.157       .  T
C1383      N1401   1.157       .  T
C1384      C1385   1.410       .  A
C1384      C1389   1.450       .  S
C1385      C1386   1.411       .  A
C1385      C1391   1.450       .  S
C1386      C1387   1.411       .  A
C1387      C1388   1.409       .  A
C1387      C1390   1.451       .  S
C1388      C1392   1.451       .  S
C1389      N1396   1.157       .  T
C1390      N1397   1.157       .  T
C1391      N1395   1.157       .  T
C1392      N1398   1.157       .  T
C1393      N1402   1.157       .  T
C1394      N1400   1.157       .  T
C1403      C1404   1.410       .  A
C1403      C1408   1.412       .  A
C1403      C1421   1.450       .  S
C1404      C1409   1.492       .  S
C1404      C1405   1.410       .  A
C1405      C1406   1.406       .  A
C1405      C1410   1.452       .  S
C1406      C1407   1.414       .  A
C1406      C1422   1.452       .  S
C1407      C1408   1.414       .  A
C1408      C1411   1.450       .  S
C1409      C1412   1.408       .  A
C1409      C1416   1.407       .  A
C1410      N1427   1.157       .  T
C1411      N1429   1.157       .  T
C1412      C1413   1.407       .  A
C1412      C1417   1.452       .  S
C1413      C1414   1.420       .  A
C1413      C1419   1.452       .  S
C1414      C1415   1.421       .  A
C1415      C1416   1.412       .  A
C1415      C1418   1.451       .  S
C1416      C1420   1.451       .  S
C1417      N1424   1.157       .  T
C1418      N1425   1.158       .  T
C1419      N1423   1.157       .  T
C1420      N1426   1.157       .  T
C1421      N1430   1.157       .  T
C1422      N1428   1.157       .  T
C1431      C1432   1.410       .  A
C1431      C1436   1.409       .  A
C1431      C1449   1.450       .  S
C1432      C1437   1.495       .  S
C1432      C1433   1.411       .  A
C1433      C1434   1.411       .  A
C1433      C1438   1.450       .  S
C1434      C1435   1.413       .  A
C1434      C1450   1.450       .  S
C1435      C1436   1.411       .  A
C1436      C1439   1.451       .  S
C1437      C1440   1.408       .  A
C1437      C1444   1.408       .  A
C1438      N1455   1.157       .  T
C1439      N1457   1.157       .  T
C1440      C1441   1.415       .  A
C1440      C1445   1.450       .  S
C1441      C1442   1.422       .  A
C1441      C1447   1.451       .  S
C1442      C1443   1.421       .  A
C1443      C1444   1.407       .  A
C1443      C1446   1.452       .  S
C1444      C1448   1.453       .  S
C1445      N1452   1.157       .  T
C1446      N1453   1.157       .  T
C1447      N1451   1.158       .  T
C1448      N1454   1.157       .  T
C1449      N1458   1.157       .  T
C1450      N1456   1.157       .  T
C1459      C1460   1.409       .  A
C1459      C1464   1.408       .  A
C1459      C1477   1.453       .  S
C1460      C1465   1.496       .  S
C1460      C1461   1.410       .  A
C1461      C1462   1.414       .  A
C1461      C1466   1.450       .  S
C1462      C1463   1.417       .  A
C1462      C1478   1.450       .  S
C1463      C1464   1.419       .  A
C1464      C1467   1.452       .  S
C1465      C1468   1.409       .  A
C1465      C1472   1.409       .  A
C1466      N1483   1.157       .  T
C1467      N1485   1.157       .  T
C1468      C1469   1.410       .  A
C1468      C1473   1.451       .  S
C1469      C1470   1.418       .  A
C1469      C1475   1.452       .  S
C1470      C1471   1.415       .  A
C1471      C1472   1.411       .  A
C1471      C1474   1.448       .  S
C1472      C1476   1.451       .  S
C1473      N1480   1.157       .  T
C1474      N1481   1.157       .  T
C1475      N1479   1.157       .  T
C1476      N1482   1.157       .  T
C1477      N1486   1.157       .  T
C1478      N1484   1.157       .  T
C1487      C1488   1.409       .  A
C1487      C1492   1.411       .  A
C1487      C1505   1.451       .  S
C1488      C1493   1.496       .  S
C1488      C1489   1.409       .  A
C1489      C1490   1.411       .  A
C1489      C1494   1.450       .  S
C1490      C1491   1.417       .  A
C1490      C1506   1.451       .  S
C1491      C1492   1.414       .  A
C1492      C1495   1.448       .  S
C1493      C1496   1.410       .  A
C1493      C1500   1.410       .  A
C1494      N1511   1.157       .  T
C1495      N1513   1.157       .  T
C1496      C1497   1.414       .  A
C1496      C1501   1.450       .  S
C1497      C1498   1.416       .  A
C1497      C1503   1.450       .  S
C1498      C1499   1.417       .  A
C1499      C1500   1.408       .  A
C1499      C1502   1.452       .  S
C1500      C1504   1.453       .  S
C1501      N1508   1.157       .  T
C1502      N1509   1.157       .  T
C1503      N1507   1.157       .  T
C1504      N1510   1.157       .  T
C1505      N1514   1.157       .  T
C1506      N1512   1.157       .  T
C1515      C1516   1.410       .  A
C1515      C1520   1.409       .  A
C1515      C1533   1.450       .  S
C1516      C1521   1.494       .  S
C1516      C1517   1.411       .  A
C1517      C1518   1.410       .  A
C1517      C1522   1.450       .  S
C1518      C1519   1.412       .  A
C1518      C1534   1.451       .  S
C1519      C1520   1.411       .  A
C1520      C1523   1.450       .  S
C1521      C1524   1.408       .  A
C1521      C1528   1.409       .  A
C1522      N1539   1.157       .  T
C1523      N1541   1.157       .  T
C1524      C1525   1.413       .  A
C1524      C1529   1.450       .  S
C1525      C1526   1.415       .  A
C1525      C1531   1.447       .  S
C1526      C1527   1.416       .  A
C1527      C1528   1.408       .  A
C1527      C1530   1.452       .  S
C1528      C1532   1.452       .  S
C1529      N1536   1.157       .  T
C1530      N1537   1.157       .  T
C1531      N1535   1.157       .  T
C1532      N1538   1.157       .  T
C1533      N1542   1.157       .  T
C1534      N1540   1.157       .  T
C1543      C1544   1.411       .  A
C1543      C1548   1.409       .  A
C1543      C1561   1.451       .  S
C1544      C1549   1.497       .  S
C1544      C1545   1.412       .  A
C1545      C1546   1.411       .  A
C1545      C1550   1.450       .  S
C1546      C1547   1.414       .  A
C1546      C1562   1.451       .  S
C1547      C1548   1.413       .  A
C1548      C1551   1.451       .  S
C1549      C1552   1.412       .  A
C1549      C1556   1.412       .  A
C1550      N1567   1.157       .  T
C1551      N1569   1.157       .  T
C1552      C1553   1.411       .  A
C1552      C1557   1.450       .  S
C1553      C1554   1.411       .  A
C1553      C1559   1.450       .  S
C1554      C1555   1.412       .  A
C1555      C1556   1.410       .  A
C1555      C1558   1.451       .  S
C1556      C1560   1.451       .  S
C1557      N1564   1.157       .  T
C1558      N1565   1.157       .  T
C1559      N1563   1.157       .  T
C1560      N1566   1.157       .  T
C1561      N1570   1.157       .  T
C1562      N1568   1.157       .  T
C1571      C1572   1.413       .  A
C1571      C1576   1.412       .  A
C1571      C1589   1.450       .  S
C1572      C1577   1.501       .  S
C1572      C1573   1.413       .  A
C1573      C1574   1.410       .  A
C1573      C1578   1.450       .  S
C1574      C1575   1.411       .  A
C1574      C1590   1.451       .  S
C1575      C1576   1.411       .  A
C1576      C1579   1.450       .  S
C1577      C1580   1.410       .  A
C1577      C1584   1.410       .  A
C1578      N1595   1.157       .  T
C1579      N1597   1.157       .  T
C1580      C1581   1.414       .  A
C1580      C1585   1.451       .  S
C1581      C1582   1.421       .  A
C1581      C1587   1.451       .  S
C1582      C1583   1.420       .  A
C1583      C1584   1.412       .  A
C1583      C1586   1.451       .  S
C1584      C1588   1.452       .  S
C1585      N1592   1.157       .  T
C1586      N1593   1.157       .  T
C1587      N1591   1.158       .  T
C1588      N1594   1.157       .  T
C1589      N1598   1.157       .  T
C1590      N1596   1.157       .  T
C1599      C1600   1.410       .  A
C1599      C1604   1.415       .  A
C1599      C1617   1.451       .  S
C1600      C1605   1.501       .  S
C1600      C1601   1.408       .  A
C1601      C1602   1.413       .  A
C1601      C1606   1.451       .  S
C1602      C1603   1.422       .  A
C1602      C1618   1.451       .  S
C1603      C1604   1.420       .  A
C1604      C1607   1.451       .  S
C1605      C1608   1.412       .  A
C1605      C1612   1.412       .  A
C1606      N1623   1.157       .  T
C1607      N1625   1.158       .  T
C1608      C1609   1.414       .  A
C1608      C1613   1.449       .  S
C1609      C1610   1.412       .  A
C1609      C1615   1.450       .  S
C1610      C1611   1.411       .  A
C1611      C1612   1.411       .  A
C1611      C1614   1.450       .  S
C1612      C1616   1.450       .  S
C1613      N1620   1.157       .  T
C1614      N1621   1.157       .  T
C1615      N1619   1.157       .  T
C1616      N1622   1.157       .  T
C1617      N1626   1.157       .  T
C1618      N1624   1.157       .  T
C1627      C1628   1.412       .  A
C1627      C1632   1.410       .  A
C1627      C1645   1.450       .  S
C1628      C1633   1.492       .  S
C1628      C1629   1.410       .  A
C1629      C1630   1.407       .  A
C1629      C1634   1.451       .  S
C1630      C1631   1.413       .  A
C1630      C1646   1.452       .  S
C1631      C1632   1.411       .  A
C1632      C1635   1.451       .  S
C1633      C1636   1.410       .  A
C1633      C1640   1.410       .  A
C1634      N1651   1.157       .  T
C1635      N1653   1.157       .  T
C1636      C1637   1.410       .  A
C1636      C1641   1.450       .  S
C1637      C1638   1.413       .  A
C1637      C1643   1.451       .  S
C1638      C1639   1.414       .  A
C1639      C1640   1.407       .  A
C1639      C1642   1.452       .  S
C1640      C1644   1.451       .  S
C1641      N1648   1.157       .  T
C1642      N1649   1.157       .  T
C1643      N1647   1.157       .  T
C1644      N1650   1.157       .  T
C1645      N1654   1.157       .  T
C1646      N1652   1.157       .  T
C1655      C1656   1.411   1_455  A
C1655      C1660   1.410       .  A
C1655      C1673   1.451       .  S
C1656      C1661   1.494       .  S
C1656      C1657   1.412       .  A
C1657      C1658   1.410       .  A
C1657      C1662   1.451       .  S
C1658      C1659   1.411       .  A
C1658      C1674   1.450       .  S
C1659      C1660   1.412   1_655  A
C1660      C1663   1.451       .  S
C1661      C1664   1.409   1_655  A
C1661      C1668   1.409       .  A
C1662      N1679   1.157       .  T
C1663      N1681   1.157       .  T
C1664      C1665   1.407       .  A
C1664      C1669   1.452       .  S
C1665      C1666   1.413   1_455  A
C1665      C1671   1.447       .  S
C1666      C1667   1.414       .  A
C1667      C1668   1.412       .  A
C1667      C1670   1.447       .  S
C1668      C1672   1.450       .  S
C1669      N1676   1.157       .  T
C1670      N1677   1.157       .  T
C1671      N1675   1.157       .  T
C1672      N1678   1.157       .  T
C1673      N1682   1.157       .  T
C1674      N1680   1.157       .  T
C1683      C1684   1.407   1_455  A
C1683      C1688   1.412       .  A
C1683      C1701   1.451       .  S
C1684      C1689   1.494       .  S
C1684      C1685   1.408       .  A
C1685      C1686   1.411       .  A
C1685      C1690   1.453       .  S
C1686      C1687   1.422       .  A
C1686      C1702   1.451       .  S
C1687      C1688   1.421   1_655  A
C1688      C1691   1.451       .  S
C1689      C1692   1.407   1_655  A
C1689      C1696   1.410       .  A
C1690      N1707   1.157       .  T
C1691      N1709   1.157       .  T
C1692      C1693   1.407       .  A
C1692      C1697   1.452       .  S
C1693      C1694   1.414   1_455  A
C1693      C1699   1.448       .  S
C1694      C1695   1.414       .  A
C1695      C1696   1.413       .  A
C1695      C1698   1.447       .  S
C1696      C1700   1.450       .  S
C1697      N1704   1.157       .  T
C1698      N1705   1.157       .  T
C1699      N1703   1.157       .  T
C1700      N1706   1.157       .  T
C1701      N1710   1.157       .  T
C1702      N1708   1.158       .  T
C1711      C1712   1.413       .  A
C1711      C1716   1.409       .  A
C1711      C1729   1.451       .  S
C1712      C1717   1.497       .  S
C1712      C1713   1.412       .  A
C1713      C1714   1.410       .  A
C1713      C1718   1.450       .  S
C1714      C1715   1.410       .  A
C1714      C1730   1.451       .  S
C1715      C1716   1.411       .  A
C1716      C1719   1.451       .  S
C1717      C1720   1.408       .  A
C1717      C1724   1.409       .  A
C1718      N1735   1.157       .  T
C1719      N1737   1.157       .  T
C1720      C1721   1.412       .  A
C1720      C1725   1.451       .  S
C1721      C1722   1.421       .  A
C1721      C1727   1.449       .  S
C1722      C1723   1.421       .  A
C1723      C1724   1.411       .  A
C1723      C1726   1.452       .  S
C1724      C1728   1.452       .  S
C1725      N1732   1.157       .  T
C1726      N1733   1.158       .  T
C1727      N1731   1.157       .  T
C1728      N1734   1.157       .  T
C1729      N1738   1.157       .  T
C1730      N1736   1.157       .  T
C1739      C1740   1.408       .  A
C1739      C1744   1.411       .  A
C1739      C1757   1.452       .  S
C1740      C1745   1.500       .  S
C1740      C1741   1.410       .  A
C1741      C1742   1.415       .  A
C1741      C1746   1.451       .  S
C1742      C1743   1.420       .  A
C1742      C1758   1.450       .  S
C1743      C1744   1.422       .  A
C1744      C1747   1.451       .  S
C1745      C1748   1.413       .  A
C1745      C1752   1.412       .  A
C1746      N1763   1.157       .  T
C1747      N1765   1.157       .  T
C1748      C1749   1.411       .  A
C1748      C1753   1.451       .  S
C1749      C1750   1.412       .  A
C1749      C1755   1.451       .  S
C1750      C1751   1.411       .  A
C1751      C1752   1.411       .  A
C1751      C1754   1.450       .  S
C1752      C1756   1.450       .  S
C1753      N1760   1.157       .  T
C1754      N1761   1.157       .  T
C1755      N1759   1.157       .  T
C1756      N1762   1.157       .  T
C1757      N1766   1.157       .  T
C1758      N1764   1.157       .  T
C1767      C1768   1.410       .  A
C1767      C1772   1.415       .  A
C1767      C1785   1.451       .  S
C1768      C1773   1.504       .  S
C1768      C1769   1.410       .  A
C1769      C1770   1.413       .  A
C1769      C1774   1.452       .  S
C1770      C1771   1.424       .  A
C1770      C1786   1.452       .  S
C1771      C1772   1.423       .  A
C1772      C1775   1.451       .  S
C1773      C1776   1.413       .  A
C1773      C1780   1.414       .  A
C1774      N1791   1.157       .  T
C1775      N1793   1.158   1_554  T
C1776      C1777   1.412       .  A
C1776      C1781   1.451       .  S
C1777      C1778   1.413       .  A
C1777      C1783   1.451       .  S
C1778      C1779   1.412       .  A
C1779      C1780   1.413       .  A
C1779      C1782   1.451       .  S
C1780      C1784   1.450       .  S
C1781      N1788   1.157       .  T
C1782      N1789   1.157       .  T
C1783      N1787   1.157       .  T
C1784      N1790   1.157       .  T
C1785      N1794   1.157       .  T
C1786      N1792   1.158       .  T
C1795      C1796   1.412       .  A
C1795      C1800   1.410       .  A
C1795      C1813   1.451       .  S
C1796      C1801   1.498       .  S
C1796      C1797   1.411       .  A
C1797      C1798   1.412       .  A
C1797      C1802   1.449       .  S
C1798      C1799   1.412       .  A
C1798      C1814   1.450       .  S
C1799      C1800   1.412       .  A
C1800      C1803   1.450       .  S
C1801      C1804   1.410       .  A
C1801      C1808   1.408       .  A
C1802      N1819   1.157       .  T
C1803      N1821   1.157       .  T
C1804      C1805   1.412       .  A
C1804      C1809   1.451       .  S
C1805      C1806   1.419       .  A
C1805      C1811   1.451       .  S
C1806      C1807   1.419       .  A
C1807      C1808   1.413       .  A
C1807      C1810   1.451       .  S
C1808      C1812   1.450       .  S
C1809      N1816   1.157       .  T
C1810      N1817   1.157       .  T
C1811      N1815   1.157       .  T
C1812      N1818   1.157       .  T
C1813      N1822   1.157       .  T
C1814      N1820   1.157       .  T
C1823      C1824   1.409   1_655  A
C1823      C1828   1.411       .  A
C1823      C1841   1.451       .  S
C1824      C1829   1.498       .  S
C1824      C1825   1.409       .  A
C1825      C1826   1.412       .  A
C1825      C1830   1.450       .  S
C1826      C1827   1.415       .  A
C1826      C1842   1.447       .  S
C1827      C1828   1.414   1_455  A
C1828      C1831   1.447       .  S
C1829      C1832   1.411   1_455  A
C1829      C1836   1.412       .  A
C1830      N1847   1.157       .  T
C1831      N1849   1.157       .  T
C1832      C1833   1.412       .  A
C1832      C1837   1.450       .  S
C1833      C1834   1.412   1_655  A
C1833      C1839   1.450       .  S
C1834      C1835   1.413       .  A
C1835      C1836   1.412       .  A
C1835      C1838   1.450       .  S
C1836      C1840   1.450       .  S
C1837      N1844   1.157       .  T
C1838      N1845   1.157       .  T
C1839      N1843   1.157       .  T
C1840      N1846   1.157       .  T
C1841      N1850   1.157       .  T
C1842      N1848   1.157       .  T
C1851      C1852   1.409   1_655  A
C1851      C1856   1.413       .  A
C1851      C1869   1.451       .  S
C1852      C1857   1.497       .  S
C1852      C1853   1.409       .  A
C1853      C1854   1.411       .  A
C1853      C1858   1.452       .  S
C1854      C1855   1.417       .  A
C1854      C1870   1.450       .  S
C1855      C1856   1.416   1_455  A
C1856      C1859   1.448       .  S
C1857      C1860   1.409   1_455  A
C1857      C1864   1.410       .  A
C1858      N1875   1.157       .  T
C1859      N1877   1.156       .  T
C1860      C1861   1.409       .  A
C1860      C1865   1.451       .  S
C1861      C1862   1.414   1_655  A
C1861      C1867   1.448       .  S
C1862      C1863   1.416       .  A
C1863      C1864   1.412       .  A
C1863      C1866   1.447       .  S
C1864      C1868   1.451       .  S
C1865      N1872   1.157       .  T
C1866      N1873   1.157       .  T
C1867      N1871   1.157       .  T
C1868      N1874   1.157       .  T
C1869      N1878   1.157       .  T
C1870      N1876   1.157       .  T
C1879      C1880   1.409       .  A
C1879      C1884   1.406       .  A
C1879      C1897   1.451       .  S
C1880      C1885   1.487       .  S
C1880      C1881   1.410       .  A
C1881      C1882   1.408       .  A
C1881      C1886   1.451       .  S
C1882      C1883   1.411       .  A
C1882      C1898   1.450       .  S
C1883      C1884   1.414       .  A
C1884      C1887   1.452       .  S
C1885      C1888   1.410       .  A
C1885      C1892   1.411       .  A
C1886      N1903   1.157       .  T
C1887      N1905   1.157       .  T
C1888      C1889   1.405       .  A
C1888      C1893   1.451       .  S
C1889      C1890   1.411       .  A
C1889      C1895   1.452       .  S
C1890      C1891   1.409       .  A
C1891      C1892   1.408       .  A
C1891      C1894   1.450       .  S
C1892      C1896   1.450       .  S
C1893      N1900   1.157       .  T
C1894      N1901   1.157       .  T
C1895      N1899   1.157       .  T
C1896      N1902   1.157       .  T
C1897      N1906   1.157       .  T
C1898      N1904   1.157       .  T
C1907      C1908   1.411       .  A
C1907      C1912   1.415       .  A
C1907      C1925   1.450       .  S
C1908      C1913   1.504       .  S
C1908      C1909   1.412       .  A
C1909      C1910   1.415       .  A
C1909      C1914   1.450       .  S
C1910      C1911   1.416       .  A
C1910      C1926   1.451       .  S
C1911      C1912   1.415       .  A
C1912      C1915   1.450       .  S
C1913      C1916   1.413       .  A
C1913      C1920   1.412       .  A
C1914      N1931   1.157       .  T
C1915      N1933   1.157       .  T
C1916      C1917   1.415       .  A
C1916      C1921   1.450       .  S
C1917      C1918   1.412       .  A
C1917      C1923   1.450       .  S
C1918      C1919   1.412       .  A
C1919      C1920   1.413       .  A
C1919      C1922   1.451       .  S
C1920      C1924   1.450       .  S
C1921      N1928   1.157       .  T
C1922      N1929   1.157       .  T
C1923      N1927   1.157       .  T
C1924      N1930   1.157       .  T
C1925      N1934   1.157       .  T
C1926      N1932   1.157       .  T
C1935      C1936   1.411       .  A
C1935      C1940   1.413       .  A
C1935      C1953   1.451       .  S
C1936      C1941   1.500       .  S
C1936      C1937   1.409       .  A
C1937      C1938   1.410       .  A
C1937      C1942   1.451       .  S
C1938      C1939   1.418       .  A
C1938      C1954   1.452       .  S
C1939      C1940   1.418       .  A
C1940      C1943   1.451       .  S
C1941      C1944   1.409       .  A
C1941      C1948   1.409       .  A
C1942      N1959   1.157       .  T
C1943      N1961   1.158       .  T
C1944      C1945   1.412       .  A
C1944      C1949   1.452       .  S
C1945      C1946   1.423       .  A
C1945      C1951   1.452       .  S
C1946      C1947   1.421       .  A
C1947      C1948   1.414       .  A
C1947      C1950   1.451       .  S
C1948      C1952   1.451       .  S
C1949      N1956   1.157       .  T
C1950      N1957   1.157       .  T
C1951      N1955   1.158       .  T
C1952      N1958   1.157       .  T
C1953      N1962   1.157       .  T
C1954      N1960   1.157       .  T
C1963      C1964   1.411       .  A
C1963      C1968   1.407       .  A
C1963      C1981   1.451       .  S
C1964      C1969   1.489       .  S
C1964      C1965   1.410       .  A
C1965      C1966   1.408       .  A
C1965      C1970   1.450       .  S
C1966      C1967   1.410       .  A
C1966      C1982   1.450       .  S
C1967      C1968   1.410       .  A
C1968      C1971   1.452       .  S
C1969      C1972   1.410       .  A
C1969      C1976   1.408       .  A
C1970      N1987   1.157       .  T
C1971      N1989   1.157       .  T
C1972      C1973   1.409       .  A
C1972      C1977   1.451       .  S
C1973      C1974   1.416       .  A
C1973      C1979   1.451       .  S
C1974      C1975   1.415       .  A
C1975      C1976   1.408       .  A
C1975      C1978   1.451       .  S
C1976      C1980   1.451       .  S
C1977      N1984   1.157       .  T
C1978      N1985   1.157       .  T
C1979      N1983   1.157       .  T
C1980      N1986   1.157       .  T
C1981      N1990   1.157       .  T
C1982      N1988   1.157       .  T
C1991      C1992   1.410       .  A
C1991      C1996   1.412       .  A
C1991      C2009   1.451       .  S
C1992      C1997   1.495       .  S
C1992      C1993   1.409   1_565  A
C1993      C1994   1.408   1_545  A
C1993      C1998   1.452       .  S
C1994      C1995   1.414       .  A
C1994      C2010   1.448   1_565  S
C1995      C1996   1.416       .  A
C1996      C1999   1.448       .  S
C1997      C2000   1.409   1_565  A
C1997      C2004   1.411       .  A
C1998      N2015   1.157       .  T
C1999      N2017   1.157       .  T
C2000      C2001   1.411       .  A
C2000      C2005   1.451       .  S
C2001      C2002   1.418   1_545  A
C2001      C2007   1.450       .  S
C2002      C2003   1.416       .  A
C2003      C2004   1.411       .  A
C2003      C2006   1.451       .  S
C2004      C2008   1.451       .  S
C2005      N2012   1.157       .  T
C2006      N2013   1.157       .  T
C2007      N2011   1.157       .  T
C2008      N2014   1.157       .  T
C2009      N2018   1.157       .  T
C2010      N2016   1.157       .  T
C2019      C2020   1.409   1_545  A
C2019      C2024   1.409       .  A
C2019      C2037   1.451       .  S
C2020      C2025   1.496       .  S
C2020      C2021   1.409       .  A
C2021      C2022   1.412       .  A
C2021      C2026   1.450       .  S
C2022      C2023   1.416       .  A
C2022      C2038   1.447       .  S
C2023      C2024   1.413   1_565  A
C2024      C2027   1.447       .  S
C2025      C2028   1.408       .  A
C2025      C2032   1.408   1_565  A
C2026      N2043   1.157       .  T
C2027      N2045   1.157       .  T
C2028      C2029   1.412       .  A
C2028      C2033   1.452       .  S
C2029      C2030   1.423       .  A
C2029      C2035   1.452       .  S
C2030      C2031   1.420   1_565  A
C2031      C2032   1.412       .  A
C2031      C2034   1.450       .  S
C2032      C2036   1.451       .  S
C2033      N2040   1.157       .  T
C2034      N2041   1.157       .  T
C2035      N2039   1.158       .  T
C2036      N2042   1.157       .  T
C2037      N2046   1.157       .  T
C2038      N2044   1.157       .  T
C2047      C2048   1.412       .  A
C2047      C2052   1.412       .  A
C2047      C2065   1.450       .  S
C2048      C2053   1.496       .  S
C2048      C2049   1.411       .  A
C2049      C2050   1.409       .  A
C2049      C2054   1.451       .  S
C2050      C2051   1.411       .  A
C2050      C2066   1.451       .  S
C2051      C2052   1.411       .  A
C2052      C2055   1.450       .  S
C2053      C2056   1.410       .  A
C2053      C2060   1.410       .  A
C2054      N2071   1.157       .  T
C2055      N2073   1.157       .  T
C2056      C2057   1.411       .  A
C2056      C2061   1.450       .  S
C2057      C2058   1.414       .  A
C2057      C2063   1.451       .  S
C2058      C2059   1.417       .  A
C2059      C2060   1.411       .  A
C2059      C2062   1.452       .  S
C2060      C2064   1.451       .  S
C2061      N2068   1.157       .  T
C2062      N2069   1.157       .  T
C2063      N2067   1.157       .  T
C2064      N2070   1.157       .  T
C2065      N2074   1.157       .  T
C2066      N2072   1.157       .  T
C2075      C2076   1.411       .  A
C2075      C2080   1.410       .  A
C2075      C2093   1.451       .  S
C2076      C2081   1.496       .  S
C2076      C2077   1.411       .  A
C2077      C2078   1.412       .  A
C2077      C2082   1.450       .  S
C2078      C2079   1.412       .  A
C2078      C2094   1.450       .  S
C2079      C2080   1.413       .  A
C2080      C2083   1.451       .  S
C2081      C2084   1.410       .  A
C2081      C2088   1.410       .  A
C2082      N2099   1.157       .  T
C2083      N2101   1.157       .  T
C2084      C2085   1.412       .  A
C2084      C2089   1.450       .  S
C2085      C2086   1.416       .  A
C2085      C2091   1.451       .  S
C2086      C2087   1.418       .  A
C2087      C2088   1.410       .  A
C2087      C2090   1.452       .  S
C2088      C2092   1.451       .  S
C2089      N2096   1.157       .  T
C2090      N2097   1.158       .  T
C2091      N2095   1.157       .  T
C2092      N2098   1.157       .  T
C2093      N2102   1.157       .  T
C2094      N2100   1.157       .  T
C2103      C2104   1.411       .  A
C2103      C2108   1.410       .  A
C2103      C2121   1.451       .  S
C2104      C2109   1.498       .  S
C2104      C2105   1.413       .  A
C2105      C2106   1.413       .  A
C2105      C2110   1.449       .  S
C2106      C2107   1.411       .  A
C2106      C2122   1.450       .  S
C2107      C2108   1.413       .  A
C2108      C2111   1.452       .  S
C2109      C2112   1.409       .  A
C2109      C2116   1.409       .  A
C2110      N2127   1.157       .  T
C2111      N2129   1.157       .  T
C2112      C2113   1.414       .  A
C2112      C2117   1.451       .  S
C2113      C2114   1.419       .  A
C2113      C2119   1.450       .  S
C2114      C2115   1.420       .  A
C2115      C2116   1.411       .  A
C2115      C2118   1.451       .  S
C2116      C2120   1.451       .  S
C2117      N2124   1.157       .  T
C2118      N2125   1.157       .  T
C2119      N2123   1.157       .  T
C2120      N2126   1.157       .  T
C2121      N2130   1.157       .  T
C2122      N2128   1.157       .  T
C2131      C2132   1.411       .  A
C2131      C2136   1.411       .  A
C2131      C2149   1.450       .  S
C2132      C2137   1.494       .  S
C2132      C2133   1.411       .  A
C2133      C2134   1.409       .  A
C2133      C2138   1.451       .  S
C2134      C2135   1.413       .  A
C2134      C2150   1.451       .  S
C2135      C2136   1.412       .  A
C2136      C2139   1.450       .  S
C2137      C2140   1.410       .  A
C2137      C2144   1.409       .  A
C2138      N2155   1.157       .  T
C2139      N2157   1.157       .  T
C2140      C2141   1.412       .  A
C2140      C2145   1.450       .  S
C2141      C2142   1.416       .  A
C2141      C2147   1.451       .  S
C2142      C2143   1.418       .  A
C2143      C2144   1.409       .  A
C2143      C2146   1.452       .  S
C2144      C2148   1.451       .  S
C2145      N2152   1.157       .  T
C2146      N2153   1.158       .  T
C2147      N2151   1.157       .  T
C2148      N2154   1.157       .  T
C2149      N2158   1.157       .  T
C2150      N2156   1.157       .  T
C2159      C2160   1.407       .  A
C2159      C2164   1.409       .  A
C2159      C2177   1.451       .  S
C2160      C2165   1.494       .  S
C2160      C2161   1.408       .  A
C2161      C2162   1.411       .  A
C2161      C2166   1.451       .  S
C2162      C2163   1.416       .  A
C2162      C2178   1.446       .  S
C2163      C2164   1.416       .  A
C2164      C2167   1.447       .  S
C2165      C2168   1.408       .  A
C2165      C2172   1.407       .  A
C2166      N2183   1.157       .  T
C2167      N2185   1.157       .  T
C2168      C2169   1.410       .  A
C2168      C2173   1.453       .  S
C2169      C2170   1.423       .  A
C2169      C2175   1.452       .  S
C2170      C2171   1.422       .  A
C2171      C2172   1.413       .  A
C2171      C2174   1.451       .  S
C2172      C2176   1.451       .  S
C2173      N2180   1.157       .  T
C2174      N2181   1.157       .  T
C2175      N2179   1.158       .  T
C2176      N2182   1.157       .  T
C2177      N2186   1.157       .  T
C2178      N2184   1.157       .  T
C2187      C2188   1.411       .  A
C2187      C2192   1.413       .  A
C2187      C2205   1.451       .  S
C2188      C2193   1.498       .  S
C2188      C2189   1.411       .  A
C2189      C2190   1.411       .  A
C2189      C2194   1.451       .  S
C2190      C2191   1.415       .  A
C2190      C2206   1.451       .  S
C2191      C2192   1.416       .  A
C2192      C2195   1.451       .  S
C2193      C2196   1.409       .  A
C2193      C2200   1.409       .  A
C2194      N2211   1.157       .  T
C2195      N2213   1.157       .  T
C2196      C2197   1.411       .  A
C2196      C2201   1.451       .  S
C2197      C2198   1.416       .  A
C2197      C2203   1.447       .  S
C2198      C2199   1.415       .  A
C2199      C2200   1.411       .  A
C2199      C2202   1.447       .  S
C2200      C2204   1.451       .  S
C2201      N2208   1.157       .  T
C2202      N2209   1.157       .  T
C2203      N2207   1.157       .  T
C2204      N2210   1.157       .  T
C2205      N2214   1.157       .  T
C2206      N2212   1.157       .  T
C2215      C2216   1.411       .  A
C2215      C2220   1.411       .  A
C2215      C2233   1.451       .  S
C2216      C2221   1.500       .  S
C2216      C2217   1.411       .  A
C2217      C2218   1.412       .  A
C2217      C2222   1.451       .  S
C2218      C2219   1.419       .  A
C2218      C2234   1.452       .  S
C2219      C2220   1.418       .  A
C2220      C2223   1.452       .  S
C2221      C2224   1.412       .  A
C2221      C2228   1.412       .  A
C2222      N2239   1.157       .  T
C2223      N2241   1.157       .  T
C2224      C2225   1.411       .  A
C2224      C2229   1.451       .  S
C2225      C2226   1.413       .  A
C2225      C2231   1.451       .  S
C2226      C2227   1.413       .  A
C2227      C2228   1.412       .  A
C2227      C2230   1.451       .  S
C2228      C2232   1.450       .  S
C2229      N2236   1.157       .  T
C2230      N2237   1.157       .  T
C2231      N2235   1.157       .  T
C2232      N2238   1.157       .  T
C2233      N2242   1.157       .  T
C2234      N2240   1.158       .  T
C2243      C2244   1.412       .  A
C2243      C2248   1.406       .  A
C2243      C2261   1.451       .  S
C2244      C2249   1.492       .  S
C2244      C2245   1.413       .  A
C2245      C2246   1.410       .  A
C2245      C2250   1.450       .  S
C2246      C2247   1.409       .  A
C2246      C2262   1.450       .  S
C2247      C2248   1.410       .  A
C2248      C2251   1.452       .  S
C2249      C2252   1.412       .  A
C2249      C2256   1.409       .  A
C2250      N2267   1.157       .  T
C2251      N2269   1.157       .  T
C2252      C2253   1.409       .  A
C2252      C2257   1.452       .  S
C2253      C2254   1.415       .  A
C2253      C2259   1.452       .  S
C2254      C2255   1.415       .  A
C2255      C2256   1.409       .  A
C2255      C2258   1.451       .  S
C2256      C2260   1.451       .  S
C2257      N2264   1.157       .  T
C2258      N2265   1.157       .  T
C2259      N2263   1.157       .  T
C2260      N2266   1.157       .  T
C2261      N2270   1.157       .  T
C2262      N2268   1.157       .  T
C2271      C2272   1.408       .  A
C2271      C2276   1.411       .  A
C2271      C2289   1.450       .  S
C2272      C2277   1.493       .  S
C2272      C2273   1.409       .  A
C2273      C2274   1.409       .  A
C2273      C2278   1.452       .  S
C2274      C2275   1.418       .  A
C2274      C2290   1.451       .  S
C2275      C2276   1.418       .  A
C2276      C2279   1.451       .  S
C2277      C2280   1.411       .  A
C2277      C2284   1.411       .  A
C2278      N2295   1.157       .  T
C2279      N2297   1.157       .  T
C2280      C2281   1.411       .  A
C2280      C2285   1.449       .  S
C2281      C2282   1.411       .  A
C2281      C2287   1.450       .  S
C2282      C2283   1.410       .  A
C2283      C2284   1.408       .  A
C2283      C2286   1.451       .  S
C2284      C2288   1.451       .  S
C2285      N2292   1.157       .  T
C2286      N2293   1.157       .  T
C2287      N2291   1.157       .  T
C2288      N2294   1.157       .  T
C2289      N2298   1.157       .  T
C2290      N2296   1.157       .  T
C2299      C2300   1.412       .  A
C2299      C2304   1.412       .  A
C2299      C2317   1.451       .  S
C2300      C2305   1.500       .  S
C2300      C2301   1.412       .  A
C2301      C2302   1.412       .  A
C2301      C2306   1.450       .  S
C2302      C2303   1.414       .  A
C2302      C2318   1.451       .  S
C2303      C2304   1.414       .  A
C2304      C2307   1.451       .  S
C2305      C2308   1.412       .  A
C2305      C2312   1.413       .  A
C2306      N2323   1.157       .  T
C2307      N2325   1.157       .  T
C2308      C2309   1.413       .  A
C2308      C2313   1.450       .  S
C2309      C2310   1.413       .  A
C2309      C2315   1.451       .  S
C2310      C2311   1.412       .  A
C2311      C2312   1.410       .  A
C2311      C2314   1.451       .  S
C2312      C2316   1.451       .  S
C2313      N2320   1.157       .  T
C2314      N2321   1.157       .  T
C2315      N2319   1.157       .  T
C2316      N2322   1.157       .  T
C2317      N2326   1.157       .  T
C2318      N2324   1.157       .  T
C2327      C2328   1.410   1_565  A
C2327      C2332   1.409       .  A
C2327      C2345   1.452       .  S
C2328      C2333   1.497       .  S
C2328      C2329   1.409       .  A
C2329      C2330   1.411       .  A
C2329      C2334   1.451       .  S
C2330      C2331   1.417       .  A
C2330      C2346   1.447       .  S
C2331      C2332   1.414   1_545  A
C2332      C2335   1.447       .  S
C2333      C2336   1.411       .  A
C2333      C2340   1.409   1_545  A
C2334      N2351   1.157       .  T
C2335      N2353   1.157       .  T
C2336      C2337   1.409       .  A
C2336      C2341   1.452       .  S
C2337      C2338   1.417       .  A
C2337      C2343   1.452       .  S
C2338      C2339   1.421       .  A
C2339      C2340   1.412   1_545  A
C2339      C2342   1.452   1_545  S
C2340      C2344   1.451       .  S
C2341      N2348   1.157       .  T
C2342      N2349   1.158       .  T
C2343      N2347   1.157       .  T
C2344      N2350   1.157       .  T
C2345      N2354   1.157       .  T
C2346      N2352   1.157       .  T
C2355      C2356   1.408       .  A
C2355      C2360   1.407       .  A
C2355      C2373   1.453       .  S
C2356      C2361   1.489       .  S
C2356      C2357   1.408   1_565  A
C2357      C2358   1.409       .  A
C2357      C2362   1.451       .  S
C2358      C2359   1.418       .  A
C2358      C2374   1.451       .  S
C2359      C2360   1.419   1_545  A
C2360      C2363   1.452       .  S
C2361      C2364   1.408       .  A
C2361      C2368   1.408   1_565  A
C2362      N2379   1.157       .  T
C2363      N2381   1.158       .  T
C2364      C2365   1.411       .  A
C2364      C2369   1.451       .  S
C2365      C2366   1.414       .  A
C2365      C2371   1.446       .  S
C2366      C2367   1.412   1_565  A
C2367      C2368   1.405       .  A
C2367      C2370   1.447       .  S
C2368      C2372   1.452       .  S
C2369      N2376   1.157       .  T
C2370      N2377   1.157       .  T
C2371      N2375   1.157       .  T
C2372      N2378   1.157       .  T
C2373      N2382   1.157       .  T
C2374      N2380   1.157       .  T
