geometry optimzed in LAMMPS
_audit_creation_date              2020-11-30 
_audit_creation_method            'lammps2cif' 
_symmetry_space_group_name_H-M    'P1' 
_symmetry_Int_Tables_number       1 
_symmetry_cell_setting            triclinic 
loop_ 
_symmetry_equiv_pos_as_xyz 
  x,y,z 
_cell_length_a                    38.029667 
_cell_length_b                    38.14017363334763 
_cell_length_c                    38.01874845795886 
_cell_angle_alpha                 90.0169095779291 
_cell_angle_beta                  90.0329643193935 
_cell_angle_gamma                 89.99924087193361 
loop_ 
_atom_site_label 
_atom_site_type_symbol 
_atom_site_fract_x 
_atom_site_fract_y 
_atom_site_fract_z 
_atom_site_charge 
C1          C  0.12989791  0.75029079  0.97247762     0.79900
N2          N  0.09419545  0.74819313  0.97225005    -0.78400
C3          C  0.07605221  0.74642688  0.00324106     0.82400
N4          N  0.09421842  0.74601064  0.03451040    -0.78300
C5          C  0.13018452  0.74746711  0.03442379     0.82400
N6          N  0.14706937  0.74946161  0.00331690    -0.80100
C7          C  0.40108260  0.59330580  0.04012757     0.79900
N8          N  0.39150078  0.60925435  0.00987317    -0.78400
C9          C  0.40267020  0.59759888  0.97824531     0.82400
N10         N  0.42417437  0.56928708  0.97723765    -0.78300
C11         C  0.43466143  0.55284551  0.00733094     0.82400
N12         N  0.42243600  0.56477683  0.03885859    -0.80100
C13         C  0.98503873  0.24094989  0.02580278     0.79900
N14         N  0.02090459  0.24165425  0.02600465    -0.78400
C15         C  0.03935925  0.23771234  0.99535971     0.82400
N16         N  0.02152330  0.23270059  0.96448517    -0.78300
C17         C  0.98565037  0.23133971  0.96420942     0.82400
N18         N  0.96810928  0.23537695  0.99496141    -0.80100
C19         C  0.72219482  0.37324407  0.96469129     0.79900
N20         N  0.73794439  0.36279297  0.99468004    -0.78400
C21         C  0.73149867  0.37889360  0.02556005     0.82400
N22         N  0.70837486  0.40605410  0.02620441    -0.78300
C23         C  0.69220692  0.41704001  0.99610632     0.82400
N24         N  0.69967081  0.40062618  0.96531239    -0.80100
C25         C  0.79903221  0.95866318  0.07442257     0.79900
N26         N  0.80175380  0.95813180  0.03854712    -0.78400
C27         C  0.80467081  0.98879635  0.01987033     0.82400
N28         N  0.80544921  0.02006505  0.03774869    -0.78300
C29         C  0.80308809  0.02077266  0.07368981     0.82400
N30         N  0.79994338  0.98995276  0.09119542    -0.80100
C31         C  0.66918734  0.02343857  0.32918289     0.79900
N32         N  0.67958334  0.99314866  0.31385967    -0.78400
C33         C  0.66597711  0.96214954  0.32446109     0.82400
N34         N  0.64183286  0.96182134  0.35065872    -0.78300
C35         C  0.63100635  0.99197851  0.36628334     0.82400
N36         N  0.64482954  0.02292113  0.35520030    -0.80100
C37         C  0.30509532  0.01506962  0.92660835     0.79900
N38         N  0.30606422  0.01579972  0.96255051    -0.78400
C39         C  0.30933533  0.98521295  0.98126361     0.82400
N40         N  0.31183978  0.95391780  0.96339584    -0.78300
C41         C  0.31162548  0.95331702  0.92736491     0.82400
N42         N  0.30844061  0.98400838  0.91002653    -0.80100
C43         C  0.44422529  0.94668903  0.66683030     0.79900
N44         N  0.43316829  0.97771615  0.67984702    -0.78400
C45         C  0.44602860  0.00848351  0.66759149     0.82400
N46         N  0.47046069  0.00782064  0.64163201    -0.78300
C47         C  0.48182167  0.97685780  0.62781783     0.82400
N48         N  0.46855045  0.94633810  0.64078365    -0.80100
C49         C  0.98222666  0.74320585  0.03227135     0.79900
N50         N  0.96583239  0.74142956  0.00074777    -0.78400
C51         C  0.98372536  0.74097439  0.97012580     0.82400
N52         N  0.01951858  0.74311830  0.97089610    -0.78300
C53         C  0.03691960  0.74487896  0.00245607     0.82400
N54         N  0.01806824  0.74476706  0.03308928    -0.80100
C55         C  0.70680914  0.60390060  0.03372791     0.79900
N56         N  0.72117935  0.61631697  0.00370433    -0.78400
C57         C  0.71538911  0.60031774  0.97244538     0.82400
N58         N  0.69462046  0.57148406  0.97164191    -0.78300
C59         C  0.67971450  0.55864104  0.00157269     0.82400
N60         N  0.68665273  0.57468328  0.03272061    -0.80100
C61         C  0.13307637  0.23546953  0.96580859     0.79900
N62         N  0.14975305  0.23854667  0.99705621    -0.78400
C63         C  0.13202355  0.24127048  0.02776759     0.82400
N64         N  0.09616762  0.24108954  0.02706006    -0.78300
C65         C  0.07852811  0.23842173  0.99578270     0.82400
N66         N  0.09719463  0.23576116  0.96509909    -0.80100
C67         C  0.39586985  0.37049253  0.96701207     0.79900
N68         N  0.38331525  0.35867873  0.99815471    -0.78400
C69         C  0.39573684  0.37186666  0.02873325     0.82400
N70         N  0.42043630  0.39741160  0.02816769    -0.78300
C71         C  0.43271348  0.41021201  0.99711314     0.82400
N72         N  0.42011273  0.39655858  0.96663243    -0.80100
C73         C  0.80338068  0.95585749  0.92682211     0.79900
N74         N  0.80332201  0.95667011  0.96276373    -0.78400
C75         C  0.80622928  0.98798660  0.98031847     0.82400
N76         N  0.80964003  0.01840137  0.96122343    -0.78300
C77         C  0.81039833  0.01732713  0.92518994     0.82400
N78         N  0.80725732  0.98606517  0.90889030    -0.80100
C79         C  0.66212661  0.01096569  0.66668824     0.79900
N80         N  0.67188399  0.98083324  0.68281506    -0.78400
C81         C  0.65558153  0.95021979  0.67520765     0.82400
N82         N  0.62992965  0.94979199  0.65041071    -0.78300
C83         C  0.61998221  0.97975646  0.63370489     0.82400
N84         N  0.63602068  0.01042511  0.64237844    -0.80100
C85         C  0.31021294  0.01709337  0.07502832     0.79900
N86         N  0.31039904  0.01702495  0.03897212    -0.78400
C87         C  0.30913013  0.98583281  0.02078583     0.82400
N88         N  0.30711503  0.95498846  0.03918717    -0.78300
C89         C  0.30574921  0.95526459  0.07507906     0.82400
N90         N  0.30757069  0.98622486  0.09211801    -0.80100
C91         C  0.45723021  0.95599821  0.32202079     0.79900
N92         N  0.48263174  0.95612638  0.34706511    -0.78400
C93         C  0.49313499  0.98670104  0.36241541     0.82400
N94         N  0.47812519  0.01747791  0.35190906    -0.78300
C95         C  0.45257609  0.01745628  0.32697852     0.82400
N96         N  0.44251095  0.98666177  0.31263607    -0.80100
C97         C  0.03044326  0.05814291  0.74723507     0.79900
N98         N  0.06205819  0.07408135  0.74928327    -0.78400
C99         C  0.09233638  0.05580781  0.75196916     0.82400
N100        N  0.09121902  0.01997959  0.75268894    -0.78300
C101        C  0.05952388  0.00291963  0.75097510     0.82400
N102        N  0.02919931  0.02229577  0.74821883    -0.80100
C103        C  0.03012222  0.31495179  0.60862307     0.79900
N104        N  0.06059682  0.30044258  0.62006280    -0.78400
C105        C  0.09186223  0.31247354  0.60795542     0.82400
N106        N  0.09212574  0.33856686  0.58384544    -0.78300
C107        C  0.06186156  0.35335252  0.57211165     0.82400
N108        N  0.03082049  0.34127637  0.58473439    -0.80100
C109        C  0.08589971  0.90766185  0.75388365     0.79900
N110        N  0.08782503  0.94358721  0.75387622    -0.78400
C111        C  0.05777020  0.96358192  0.75177206     0.82400
N112        N  0.02576953  0.94718061  0.74964253    -0.78300
C113        C  0.02381312  0.91147671  0.74920386     0.82400
N114        N  0.05377596  0.89257600  0.75157847    -0.80100
C115        C  0.02241964  0.64304608  0.61551059     0.79900
N116        N  0.05330492  0.65128054  0.63121512    -0.78400
C117        C  0.08389756  0.63813868  0.61866462     0.82400
N118        N  0.08364915  0.61699663  0.59014576    -0.78300
C119        C  0.05295975  0.60851173  0.57398710     0.82400
N120        N  0.02236277  0.62199075  0.58672177    -0.80100
C121        C  0.09154022  0.91528244  0.23441309     0.79900
N122        N  0.06120876  0.89691774  0.23532944    -0.78400
C123        C  0.02954143  0.91221087  0.24033492     0.82400
N124        N  0.02821454  0.94798337  0.24365436    -0.78300
C125        C  0.05854378  0.96755596  0.24254542     0.82400
N126        N  0.09023316  0.95082637  0.23850480    -0.80100
C127        C  0.08607193  0.67225091  0.40101282     0.79900
N128        N  0.08814560  0.64544547  0.42447573    -0.78400
C129        C  0.05835699  0.62862453  0.43521460     0.82400
N130        N  0.02666033  0.63922160  0.42236766    -0.78300
C131        C  0.02443250  0.66597939  0.39916392     0.82400
N132        N  0.05421008  0.68215276  0.38885853    -0.80100
C133        C  0.02605193  0.06013782  0.25263107     0.79900
N134        N  0.02620615  0.02434311  0.24987820    -0.78400
C135        C  0.05747697  0.00679986  0.24551514     0.82400
N136        N  0.08809688  0.02567558  0.24302583    -0.78300
C137        C  0.08763268  0.06143968  0.24501521     0.82400
N138        N  0.05659804  0.07777114  0.24996314    -0.80100
C139        C  0.09078978  0.33905718  0.38257461     0.79900
N140        N  0.05873052  0.33149887  0.36898339    -0.78400
C141        C  0.02910262  0.34246014  0.38541475     0.82400
N142        N  0.03162747  0.36032594  0.41609835    -0.78300
C143        C  0.06364014  0.36839852  0.42993899     0.82400
N144        N  0.09303821  0.35726611  0.41307694    -0.80100
C145        C  0.31373874  0.51718141  0.42721235     0.79900
N146        N  0.31071531  0.51650565  0.46310774    -0.78400
C147        C  0.31031925  0.48509577  0.48079356     0.82400
N148        N  0.31287782  0.45447088  0.46206392    -0.78300
C149        C  0.31631196  0.45515984  0.42632685     0.82400
N150        N  0.31636919  0.48639419  0.40972459    -0.80100
C151        C  0.16726815  0.46131026  0.16388483     0.79900
N152        N  0.17980323  0.49249192  0.17523221    -0.78400
C153        C  0.16468955  0.52294967  0.16483850     0.82400
N154        N  0.13670409  0.52198425  0.14273506    -0.78300
C155        C  0.12380569  0.49082152  0.13094348     0.82400
N156        N  0.13904296  0.46054396  0.14216034    -0.80100
O157        O  0.26166177  0.74170719  0.14647897    -0.86800
O158        O  0.23899662  0.72138742  0.34217470    -0.87000
O159        O  0.21595443  0.67558299  0.22596273    -0.88600
O160        O  0.20570284  0.78938706  0.24144846    -0.87400
O161        O  0.24426820  0.83458982  0.25063550    -0.87000
O162        O  0.26190813  0.63655700  0.23013334    -0.88400
O163        O  0.20376147  0.72408912  0.29353042    -0.86800
O164        O  0.21435572  0.73730379  0.18329217    -0.86400
Zr165      Zr  0.23857147  0.73315486  0.24168841     2.84300
O166        O  0.26613747  0.76604579  0.28522968    -1.08400
O167        O  0.28096466  0.70308687  0.20873622    -1.09100
C168        C  0.22811090  0.74004924  0.15251602     1.06300
C169        C  0.20863179  0.72075537  0.32680687     1.06200
C170        C  0.22962999  0.64470234  0.22367874     1.09200
C171        C  0.21311442  0.82253117  0.24471248     1.07000
H172        H  0.25641946  0.67794706  0.28882235     0.32600
O173        O  0.27154019  0.69537758  0.27816187    -1.29300
H174        H  0.26031989  0.78903873  0.19893371     0.32200
O175        O  0.27423332  0.77423721  0.21410388    -1.31000
O176        O  0.35235670  0.73186519  0.35875100    -0.86800
O177        O  0.37566213  0.75851988  0.16195843    -0.88300
O178        O  0.31208196  0.63272351  0.29944698    -0.86900
O179        O  0.28723003  0.82826765  0.31635917    -0.86900
O180        O  0.30656338  0.84098625  0.20177463    -0.86600
O181        O  0.33041847  0.64446591  0.18798415    -0.86400
O182        O  0.41163610  0.68749200  0.25761063    -0.86800
O183        O  0.40201812  0.80010028  0.27302357    -0.86300
O184        O  0.37431959  0.64144695  0.24887531    -0.87300
O185        O  0.35616928  0.83906752  0.26850526    -0.86500
O186        O  0.30360557  0.66950670  0.34611619    -0.86900
O187        O  0.32955029  0.69076000  0.14915312    -0.86600
O188        O  0.31411994  0.80290847  0.15573300    -0.86300
O189        O  0.28888647  0.78132802  0.35446914    -0.86700
O190        O  0.39992696  0.73627392  0.32182458    -0.87000
O191        O  0.41278182  0.75464107  0.20963676    -0.88300
Zr192      Zr  0.29954880  0.72872001  0.32159039     2.83100
Zr193      Zr  0.31643400  0.74447743  0.18121588     2.83500
Zr194      Zr  0.31542624  0.66727596  0.24538975     2.84100
Zr195      Zr  0.30193846  0.80759732  0.25737443     2.83400
Zr196      Zr  0.37810909  0.74215721  0.26170948     2.84200
O197        O  0.34435591  0.77804382  0.22464298    -1.08900
O198        O  0.34295302  0.70015018  0.28906155    -1.08400
C199        C  0.38580291  0.73364814  0.35260865     1.06300
C200        C  0.40607233  0.76054167  0.17688599     1.08900
C201        C  0.30871549  0.63873825  0.33275504     1.06500
C202        C  0.28417880  0.81384177  0.34696474     1.06800
C203        C  0.31033995  0.83402620  0.16850301     1.06400
C204        C  0.33444398  0.65823474  0.15733690     1.05900
C205        C  0.40545840  0.65444494  0.25305641     1.06400
C206        C  0.38876764  0.83121826  0.27382691     1.05900
H207        H  0.36928457  0.69786113  0.20426915     0.32600
O208        O  0.35105951  0.70901311  0.21795294    -1.30000
H209        H  0.34634040  0.78525596  0.31284465     0.32600
O210        O  0.33521240  0.77118319  0.29475727    -1.31400
C211        C  0.48370615  0.23258941  0.46752040     0.79900
N212        N  0.51965805  0.23359196  0.46585516    -0.78400
C213        C  0.53931852  0.23027591  0.49594668     0.82400
N214        N  0.52252506  0.22595653  0.52760449    -0.78300
C215        C  0.48669548  0.22421606  0.52915817     0.82400
N216        N  0.46818200  0.22735105  0.49901102    -0.80100
C217        C  0.21902519  0.09520813  0.46809635     0.79900
N218        N  0.22923832  0.10846684  0.49948089    -0.78400
C219        C  0.21865009  0.09367246  0.53003610     0.82400
N220        N  0.19759461  0.06528020  0.52917679    -0.78300
C221        C  0.18701649  0.05128483  0.49806609     0.82400
N222        N  0.19814420  0.06626497  0.46745160    -0.80100
O223        O  0.30164012  0.12828572  0.79818571    -0.86800
O224        O  0.33486366  0.32240866  0.81359996    -0.87000
O225        O  0.37311299  0.20692823  0.84129669    -0.88600
O226        O  0.25996668  0.22976158  0.85186126    -0.87400
O227        O  0.21427225  0.23737404  0.81342249    -0.87000
O228        O  0.41206451  0.20808681  0.79497398    -0.88400
O229        O  0.32914048  0.27596922  0.85177860    -0.86800
O230        O  0.30893205  0.16632122  0.84416692    -0.86400
Zr231      Zr  0.31547800  0.22370290  0.81862543     2.84300
O232        O  0.28310652  0.26674650  0.79001615    -1.08400
O233        O  0.34331687  0.18866823  0.77641826    -1.09100
C234        C  0.30472532  0.13532691  0.83158298     1.06300
C235        C  0.33617453  0.30815562  0.84433589     1.06200
C236        C  0.40391331  0.20307434  0.82753155     1.09200
C237        C  0.22683438  0.23406232  0.84467880     1.07000
H238        H  0.37149568  0.26774576  0.79800270     0.32600
O239        O  0.35336362  0.25743522  0.78352793    -1.29300
H240        H  0.25743315  0.18220037  0.79913234     0.32200
O241        O  0.27265282  0.19621597  0.78446384    -1.31000
O242        O  0.31789888  0.33596428  0.70084422    -0.86800
O243        O  0.27944961  0.14467244  0.68282857    -0.88300
O244        O  0.41691481  0.27671526  0.74536414    -0.86900
O245        O  0.22078294  0.29764814  0.77154758    -0.86900
O246        O  0.20502040  0.18457306  0.75378243    -0.86600
O247        O  0.40021956  0.16259985  0.72962047    -0.86400
O248        O  0.36030570  0.23258281  0.64403949    -0.86800
O249        O  0.24684812  0.25372113  0.65680393    -0.86300
O250        O  0.40619227  0.22361958  0.68212317    -0.87300
O251        O  0.20735578  0.24871329  0.70227427    -0.86500
O252        O  0.37987185  0.32368254  0.75198564    -0.86900
O253        O  0.35150872  0.12685184  0.73022909    -0.86600
O254        O  0.24181336  0.13755078  0.74640842    -0.86300
O255        O  0.26871597  0.33453279  0.77061685    -0.86700
O256        O  0.31149976  0.29925405  0.65384756    -0.87000
O257        O  0.29060879  0.19036838  0.64551720    -0.88300
Zr258      Zr  0.32052300  0.30102034  0.75510033     2.83100
Zr259      Zr  0.30020889  0.16175424  0.74199061     2.83500
Zr260      Zr  0.38095547  0.22268616  0.74115019     2.84100
Zr261      Zr  0.24031570  0.23916115  0.75550332     2.83400
Zr262      Zr  0.30595709  0.24087118  0.67877121     2.84200
O263        O  0.26874655  0.20572507  0.71321741    -1.08900
O264        O  0.34932631  0.26713647  0.71286177    -1.08400
C265        C  0.31497674  0.33006365  0.66740982     1.06300
C266        C  0.27827383  0.15989276  0.65231834     1.08900
C267        C  0.41075005  0.31005022  0.74912516     1.06500
C268        C  0.23605012  0.32746577  0.77631694     1.06800
C269        C  0.21116459  0.15118948  0.75073278     1.06400
C270        C  0.38470383  0.13254618  0.72678232     1.05900
C271        C  0.39325283  0.22663481  0.65083514     1.06400
C272        C  0.21549509  0.25423751  0.66990164     1.05900
H273        H  0.34794402  0.18142399  0.68854115     0.32600
O274        O  0.33748851  0.19611484  0.70647500    -1.30000
H275        H  0.26310306  0.29333874  0.70963007     0.32600
O276        O  0.27688827  0.27515765  0.72069090    -1.31400
C277        C  0.48013558  0.73270092  0.47270565     0.79900
N278        N  0.46277988  0.73041260  0.50360953    -0.78400
C279        C  0.47991219  0.72674425  0.53456644     0.82400
N280        N  0.51596741  0.72633653  0.53463575    -0.78300
C281        C  0.53435650  0.72842018  0.50355408     0.82400
N282        N  0.51605741  0.73116649  0.47256361    -0.80100
C283        C  0.22072308  0.86495776  0.53311790     0.79900
N284        N  0.19809707  0.89231269  0.53350280    -0.78400
C285        C  0.18935823  0.90883277  0.50319754     0.82400
N286        N  0.20423584  0.89795885  0.47264715    -0.78300
C287        C  0.22752399  0.87119056  0.47228196     0.82400
N288        N  0.23566451  0.85458739  0.50257426    -0.80100
C289        C  0.30079860  0.51271506  0.57528725     0.79900
N290        N  0.30356619  0.51417433  0.53939485    -0.78400
C291        C  0.30724462  0.48389093  0.52012702     0.82400
N292        N  0.30899491  0.45227755  0.53734170    -0.78300
C293        C  0.30650394  0.45095889  0.57316161     0.82400
N294        N  0.30210383  0.48115487  0.59111011    -0.80100
C295        C  0.17573297  0.44423568  0.84855084     0.79900
N296        N  0.18909709  0.47574576  0.83891472    -0.78400
C297        C  0.17394219  0.50591373  0.84983272     0.82400
N298        N  0.14456269  0.50453539  0.86994043    -0.78300
C299        C  0.13039009  0.47313638  0.87950807     0.82400
N300        N  0.14626823  0.44310582  0.86855165    -0.80100
O301        O  0.25941628  0.74164047  0.86160665    -0.86800
O302        O  0.23662635  0.69623482  0.67146899    -0.87000
O303        O  0.19978356  0.77479192  0.76327273    -0.88600
O304        O  0.21796558  0.66167175  0.78764488    -0.87400
O305        O  0.26502280  0.62395574  0.78337945    -0.87000
O306        O  0.23562211  0.82151623  0.75175573    -0.88400
O307        O  0.20062992  0.70251350  0.71943204    -0.86800
O308        O  0.21267315  0.72917537  0.82572781    -0.86400
Zr309      Zr  0.23609176  0.72063551  0.76791735     2.84300
O310        O  0.27091320  0.68394493  0.73251785    -1.08400
O311        O  0.26908898  0.76616835  0.79210208    -1.09100
C312        C  0.22608706  0.73665302  0.85577778     1.06300
C313        C  0.20672361  0.69292697  0.68767114     1.06200
C314        C  0.20504824  0.80804779  0.75762548     1.09200
C315        C  0.23284042  0.63125678  0.79094015     1.07000
H316        H  0.24176537  0.76221829  0.70803323     0.32600
O317        O  0.26080813  0.75279642  0.72195976    -1.29300
H318        H  0.27108243  0.68232009  0.82104289     0.32200
O319        O  0.28081126  0.69528850  0.80163536    -1.31000
O320        O  0.35133690  0.72008390  0.65028544    -0.86800
O321        O  0.37369826  0.75510636  0.84372231    -0.88300
O322        O  0.27858516  0.81564780  0.68688978    -0.86900
O323        O  0.30920824  0.62195810  0.71085590    -0.86900
O324        O  0.33354620  0.64246036  0.82605138    -0.86600
O325        O  0.30126825  0.83596143  0.79943004    -0.86400
O326        O  0.39357207  0.79371947  0.72717402    -0.86800
O327        O  0.41053188  0.68145531  0.74752739    -0.86300
O328        O  0.34592908  0.83095114  0.72857985    -0.87300
O329        O  0.37479095  0.63460806  0.75953117    -0.86500
O330        O  0.28136565  0.76652323  0.65230116    -0.86900
O331        O  0.31175080  0.80097742  0.84720078    -0.86600
O332        O  0.32909115  0.69144458  0.86102237    -0.86300
O333        O  0.30136638  0.65823834  0.66335607    -0.86700
O334        O  0.39805629  0.73068940  0.68668003    -0.87000
O335        O  0.41026968  0.74863385  0.79596702    -0.88300
Zr336      Zr  0.29661199  0.71636758  0.68698222     2.83100
Zr337      Zr  0.31379553  0.74110552  0.82546632     2.83500
Zr338      Zr  0.29482091  0.79805980  0.74655971     2.84100
Zr339      Zr  0.31554657  0.65810485  0.76578914     2.83400
Zr340      Zr  0.37455827  0.73535952  0.74537476     2.84200
O341        O  0.34879063  0.70354781  0.79080889    -1.08900
O342        O  0.33015665  0.76122632  0.71161446    -1.08400
C343        C  0.38477092  0.72547210  0.65602854     1.06300
C344        C  0.40398287  0.75603788  0.82836960     1.08900
C345        C  0.27493722  0.79926617  0.65733469     1.06500
C346        C  0.30497744  0.62772781  0.67722676     1.06800
C347        C  0.33610957  0.65886083  0.85585508     1.06400
C348        C  0.30732670  0.83128383  0.83280062     1.05900
C349        C  0.37847191  0.82372855  0.72272266     1.06400
C350        C  0.40506985  0.64821386  0.75244263     1.05900
H351        H  0.35442847  0.79174988  0.78936941     0.32600
O352        O  0.33991188  0.77312979  0.77998869    -1.30000
H353        H  0.35541811  0.67589693  0.70574371     0.32600
O354        O  0.34098861  0.69069020  0.72049893    -1.31400
C355        C  0.80564190  0.46097539  0.42712012     0.79900
N356        N  0.80372381  0.49257217  0.41125809    -0.78400
C357        C  0.80201242  0.52296655  0.42939237     0.82400
N358        N  0.80264677  0.52183946  0.46535980    -0.78300
C359        C  0.80455055  0.49015248  0.48250932     0.82400
N360        N  0.80586683  0.45979108  0.46310329    -0.80100
C361        C  0.93948555  0.52369925  0.15103307     0.79900
N362        N  0.92713856  0.49261976  0.16300801    -0.78400
C363        C  0.94113363  0.46192609  0.15198230     0.82400
N364        N  0.96817219  0.46264585  0.12886015    -0.78300
C365        C  0.98132280  0.49352468  0.11657387     0.82400
N366        N  0.96695618  0.52411205  0.12820569    -0.80100
C367        C  0.58929580  0.55861046  0.25172302     0.79900
N368        N  0.58928523  0.52280675  0.25058326    -0.78400
C369        C  0.55806807  0.50469833  0.24949158     0.82400
N370        N  0.52690432  0.52298440  0.24952472    -0.78300
C371        C  0.52698171  0.55886817  0.25040791     0.82400
N372        N  0.55824814  0.57561906  0.25150659    -0.80100
C373        C  0.58866856  0.81975465  0.10690964     0.79900
N374        N  0.55826229  0.80639871  0.11943848    -0.78400
C375        C  0.52690194  0.81789769  0.10715452     0.82400
N376        N  0.52636310  0.84262427  0.08145966    -0.78300
C377        C  0.55681686  0.85620337  0.06843067     0.82400
N378        N  0.58789001  0.84439742  0.08135618    -0.80100
O379        O  0.80931756  0.84443120  0.20196398    -0.86800
O380        O  0.77551461  0.65141696  0.18455982    -0.87000
O381        O  0.85417946  0.74488183  0.14669223    -0.88600
O382        O  0.74134264  0.76273072  0.15931116    -0.87400
O383        O  0.70255655  0.75857069  0.20567022    -0.87000
O384        O  0.90114927  0.73729212  0.18360880    -0.88400
O385        O  0.78172437  0.69838694  0.14754224    -0.86800
O386        O  0.80292183  0.80663444  0.15557658    -0.86400
Zr387      Zr  0.79946400  0.74860513  0.18106982     2.84300
O388        O  0.76342120  0.71284845  0.21607770    -1.08400
O389        O  0.84282822  0.77595531  0.21428846    -1.09100
C390        C  0.80572814  0.83766742  0.16860005     1.06300
C391        C  0.77182251  0.66689105  0.15448720     1.06200
C392        C  0.88751139  0.74108665  0.15282063     1.09200
C393        C  0.71055386  0.76469717  0.17325727     1.07000
H394        H  0.84292027  0.69109252  0.18845212     0.32600
O395        O  0.83272226  0.70470762  0.20728071    -1.29300
H396        H  0.75693783  0.80001716  0.21314850     0.32200
O397        O  0.77100018  0.78195069  0.22400984    -1.31000
O398        O  0.79942785  0.63440064  0.29815648    -0.86800
O399        O  0.82325462  0.83057679  0.31676717    -0.88300
O400        O  0.89622678  0.67374645  0.22459989    -0.86900
O401        O  0.70058818  0.69043382  0.25533003    -0.86900
O402        O  0.71500271  0.80497843  0.27345175    -0.86600
O403        O  0.91083077  0.78702672  0.24392674    -0.86400
O404        O  0.87026423  0.71607657  0.34142435    -0.86800
O405        O  0.75736876  0.73145886  0.35486337    -0.86300
O406        O  0.90861649  0.71857540  0.29470143    -0.87300
O407        O  0.71020072  0.73977004  0.31863521    -0.86500
O408        O  0.84890729  0.63604023  0.22684350    -0.86900
O409        O  0.87392465  0.83367446  0.25227579    -0.86600
O410        O  0.76192901  0.84284255  0.26850356    -0.86300
O411        O  0.73823214  0.64414014  0.24749210    -0.86700
O412        O  0.80730277  0.67188055  0.34454946    -0.87000
O413        O  0.82126935  0.78276679  0.35341335    -0.88300
Zr414      Zr  0.79684879  0.66895845  0.24291973     2.83100
Zr415      Zr  0.81457455  0.80948002  0.25697162     2.83500
Zr416      Zr  0.87594040  0.73224522  0.24181916     2.84100
Zr417      Zr  0.73489652  0.74570813  0.25922352     2.83400
Zr418      Zr  0.81188059  0.73020612  0.31969726     2.84200
O419        O  0.77846920  0.77366180  0.29251179    -1.08900
O420        O  0.84022387  0.69609579  0.27707384    -1.08400
C421        C  0.80255461  0.64101040  0.33158007     1.06300
C422        C  0.82473811  0.81579802  0.34728983     1.08900
C423        C  0.88138694  0.64349116  0.22051083     1.06500
C424        C  0.70720579  0.65713453  0.25184788     1.06800
C425        C  0.72937981  0.83568869  0.27458153     1.06400
C426        C  0.90480307  0.82042633  0.24733708     1.05900
C427        C  0.90100547  0.71354292  0.32736381     1.06400
C428        C  0.72383514  0.73447377  0.34940036     1.05900
H429        H  0.86632156  0.77710276  0.29962604     0.32600
O430        O  0.84847079  0.76621922  0.28505520    -1.30000
H431        H  0.75452475  0.68785985  0.30059750     0.32600
O432        O  0.76909936  0.70261680  0.28595670    -1.31400
C433        C  0.62843736  0.72789204  0.53427626     0.79900
N434        N  0.59245065  0.72806021  0.53441473    -0.78400
C435        C  0.57399663  0.72776551  0.50332535     0.82400
N436        N  0.59219899  0.72736144  0.47201948    -0.78300
C437        C  0.62824158  0.72700406  0.47178132     0.82400
N438        N  0.64524955  0.72724571  0.50296231    -0.80100
C439        C  0.88128458  0.87861091  0.53554769     0.79900
N440        N  0.86512144  0.86731185  0.50599922    -0.78400
C441        C  0.87449490  0.87965268  0.47412353     0.82400
N442        N  0.90046158  0.90393334  0.47216653    -0.78300
C443        C  0.91726449  0.91550481  0.50149803     0.82400
N444        N  0.90725250  0.90283768  0.53335671    -0.80100
C445        C  0.58887940  0.55627798  0.74230170     0.79900
N446        N  0.58957800  0.52039076  0.74362812    -0.78400
C447        C  0.55885570  0.50156078  0.74551270     0.82400
N448        N  0.52745939  0.51914484  0.74659897    -0.78300
C449        C  0.52666897  0.55491931  0.74549150     0.82400
N450        N  0.55738644  0.57279103  0.74332142    -0.80100
C451        C  0.52658492  0.82047112  0.88668028     0.79900
N452        N  0.52544481  0.84482276  0.91263796    -0.78400
C453        C  0.55553172  0.85659230  0.92791464     0.82400
N454        N  0.58686741  0.84293131  0.91724185    -0.78300
C455        C  0.58827465  0.81840754  0.89144529     0.82400
N456        N  0.55796776  0.80731018  0.87650242    -0.80100
C457        C  0.80248119  0.45638903  0.57543299     0.79900
N458        N  0.80607795  0.48671132  0.59342921    -0.78400
C459        C  0.80879326  0.51805380  0.57709882     0.82400
N460        N  0.80800408  0.51903077  0.54116534    -0.78300
C461        C  0.80501515  0.48873202  0.52200769     0.82400
N462        N  0.80246086  0.45728454  0.53942804    -0.80100
C463        C  0.95478779  0.51927651  0.82536304     0.79900
N464        N  0.94004004  0.49021513  0.81131707    -0.78400
C465        C  0.94862215  0.45798310  0.82349407     0.82400
N466        N  0.97286919  0.45520897  0.84950072    -0.78300
C467        C  0.98824384  0.48412632  0.86370099     0.82400
N468        N  0.97879019  0.51624373  0.85152687    -0.80100
O469        O  0.85701193  0.74166671  0.85682344    -0.86800
O470        O  0.87113045  0.71241333  0.66152189    -0.87000
O471        O  0.90089403  0.67473155  0.77467229    -0.88600
O472        O  0.90897124  0.78806353  0.75370109    -0.87400
O473        O  0.86922760  0.83325227  0.75010248    -0.87000
O474        O  0.85486134  0.63545040  0.77559496    -0.88400
O475        O  0.91003527  0.71812282  0.70749074    -0.86800
O476        O  0.90312779  0.73871889  0.81803077    -0.86400
Zr477      Zr  0.87699264  0.73232259  0.76026920     2.84300
O478        O  0.84688491  0.76499466  0.71813582    -1.08400
O479        O  0.83610581  0.70277787  0.79578036    -1.09100
C480        C  0.89032920  0.74058452  0.84932814     1.06300
C481        C  0.90208502  0.71047596  0.67540123     1.06200
C482        C  0.88745089  0.64397086  0.77924564     1.09200
C483        C  0.90090435  0.82103721  0.75150959     1.07000
H484        H  0.85647436  0.67647485  0.71635082     0.32600
O485        O  0.84180775  0.69421800  0.72700825    -1.29300
H486        H  0.85635952  0.78927596  0.80310350     0.32200
O487        O  0.84200311  0.77396582  0.78880007    -1.31000
O488        O  0.75799634  0.72669587  0.64941356    -0.86800
O489        O  0.74226866  0.75645030  0.84545754    -0.88300
O490        O  0.80623711  0.63038281  0.70745118    -0.86900
O491        O  0.82379839  0.82777588  0.68860896    -0.86900
O492        O  0.80665599  0.84106064  0.80138174    -0.86600
O493        O  0.78831902  0.64528577  0.82236041    -0.86400
O494        O  0.70357304  0.68281242  0.74783764    -0.86800
O495        O  0.71080667  0.79661366  0.73201336    -0.86300
O496        O  0.74247164  0.63782846  0.75667149    -0.87300
O497        O  0.75585250  0.83677609  0.73530491    -0.86500
O498        O  0.81134923  0.66772427  0.66047199    -0.86900
O499        O  0.79035320  0.69347705  0.85839455    -0.86600
O500        O  0.80403461  0.80328798  0.84819056    -0.86300
O501        O  0.82514221  0.78012027  0.65136535    -0.86700
O502        O  0.71103411  0.73276953  0.68645947    -0.87000
O503        O  0.70351385  0.75071517  0.79927230    -0.88300
Zr504      Zr  0.81265439  0.72683852  0.68388937     2.83100
Zr505      Zr  0.80115239  0.74463966  0.82348529     2.83500
Zr506      Zr  0.80040688  0.66524377  0.76196572     2.84100
Zr507      Zr  0.81100485  0.80623285  0.74692756     2.83400
Zr508      Zr  0.73566458  0.73906520  0.74558081     2.84200
O509        O  0.76993593  0.77653522  0.78112314    -1.08900
O510        O  0.77133727  0.69744869  0.71845745    -1.08400
C511        C  0.72456066  0.72909985  0.65547822     1.06300
C512        C  0.71121793  0.75701192  0.83172679     1.08900
C513        C  0.80966126  0.63678719  0.67406579     1.06500
C514        C  0.82842902  0.81302695  0.65851564     1.06800
C515        C  0.80529444  0.83430720  0.83479448     1.06400
C516        C  0.78572119  0.66059757  0.85272020     1.05900
C517        C  0.71109237  0.64977155  0.75143489     1.06400
C518        C  0.72345784  0.82800985  0.72991388     1.05900
H519        H  0.74768238  0.69615498  0.80383644     0.32600
O520        O  0.76516365  0.70743082  0.78926151    -1.30000
H521        H  0.76536074  0.78229342  0.69284091     0.32600
O522        O  0.77702749  0.76879001  0.71102327    -1.31400
C523        C  0.52783362  0.41098476  0.25228681     0.79900
N524        N  0.55904145  0.39429885  0.25051717    -0.78400
C525        C  0.58993749  0.41164988  0.24823509     0.82400
N526        N  0.58947814  0.44747606  0.24785821    -0.78300
C527        C  0.55819732  0.46536417  0.24925619     0.82400
N528        N  0.52728155  0.44683694  0.25118027    -0.80100
C529        C  0.59238120  0.14280260  0.12120549     0.79900
N530        N  0.59129944  0.12037942  0.09359583    -0.78400
C531        C  0.56020720  0.11217924  0.07782596     0.82400
N532        N  0.53012336  0.12723946  0.08994694    -0.78300
C533        C  0.53064115  0.14966886  0.11768955     0.82400
N534        N  0.56202591  0.15741896  0.13287143    -0.80100
O535        O  0.86166300  0.23904390  0.14327992    -0.86800
O536        O  0.87762009  0.27053393  0.34087491    -0.87000
O537        O  0.90229063  0.30864749  0.22283562    -0.88600
O538        O  0.91954956  0.19467995  0.24660756    -0.87400
O539        O  0.88155614  0.14800253  0.25029545    -0.87000
O540        O  0.85446132  0.34540863  0.22712051    -0.88400
O541        O  0.91482978  0.26719272  0.29338065    -0.86800
O542        O  0.90817707  0.24657436  0.18102143    -0.86400
Zr543      Zr  0.88389675  0.24939182  0.24026698     2.84300
O544        O  0.85605308  0.21584978  0.28313170    -1.08400
O545        O  0.83963356  0.27552434  0.20635930    -0.99900
C546        C  0.89489040  0.24332342  0.14990620     1.06300
C547        C  0.90770622  0.27530843  0.32564696     1.06200
C548        C  0.88702104  0.33889562  0.22025037     1.09200
C549        C  0.91258692  0.16127049  0.24862778     1.07000
H550        H  0.86012724  0.30410927  0.28506771     0.32600
O551        O  0.84684345  0.28510569  0.27485181    -1.29300
H552        H  0.86589147  0.19135310  0.19750743     0.32200
O553        O  0.85088992  0.20581364  0.21206216    -1.31000
O554        O  0.76430804  0.24536932  0.35243723    -0.86800
O555        O  0.74888830  0.21163085  0.15791295    -0.88300
O556        O  0.80581837  0.34647171  0.29573657    -0.86900
O557        O  0.84285811  0.15225929  0.31272766    -0.86900
O558        O  0.81766893  0.13718834  0.20029412    -0.86600
O559        O  0.79096459  0.33195346  0.18155542    -0.86400
O560        O  0.70723134  0.28546246  0.25247878    -0.86800
O561        O  0.72327050  0.17337695  0.26867037    -0.86300
O562        O  0.74300067  0.33311726  0.24504660    -0.87300
O563        O  0.77180245  0.13741394  0.26989600    -0.86500
O564        O  0.81456303  0.31035779  0.34291990    -0.86900
O565        O  0.79328014  0.28430820  0.14460127    -0.86600
O566        O  0.81243334  0.17378288  0.15280380    -0.86300
O567        O  0.83984770  0.19964317  0.34974250    -0.86700
O568        O  0.71842445  0.23494037  0.31473958    -0.87000
O569        O  0.71112859  0.21462070  0.20505026    -0.88300
Zr570      Zr  0.81994009  0.25128786  0.31871416     2.83100
Zr571      Zr  0.80709409  0.23213117  0.17779195     2.83500
Zr572      Zr  0.80285283  0.31096918  0.24108344     2.84100
Zr573      Zr  0.82321166  0.17192391  0.25506050     2.83400
Zr574      Zr  0.74381420  0.23257645  0.25643911     2.84200
O575        O  0.77997134  0.19792085  0.22082772    -1.08900
O576        O  0.77593947  0.27690916  0.28433973    -1.08400
C577        C  0.73115828  0.24003312  0.34573240     1.06300
C578        C  0.71861710  0.20717554  0.17289671     1.08900
C579        C  0.80978996  0.34101666  0.32926550     1.06500
C580        C  0.84784800  0.16751990  0.34262802     1.06800
C581        C  0.81410782  0.14303199  0.16679449     1.06400
C582        C  0.78846334  0.31716001  0.15105662     1.05900
C583        C  0.71244898  0.31879637  0.24856328     1.06400
C584        C  0.73867447  0.14364941  0.27353245     1.05900
H585        H  0.75139292  0.27717135  0.19848012     0.32600
O586        O  0.76977706  0.26708043  0.21279010    -1.30000
H587        H  0.77693713  0.19224047  0.30978102     0.32600
O588        O  0.78734723  0.20668324  0.29155170    -1.31400
C589        C  0.52872391  0.40789327  0.74855412     0.79900
N590        N  0.52849229  0.44374751  0.74909835    -0.78400
C591        C  0.55929202  0.46220536  0.74547541     0.82400
N592        N  0.59025470  0.44420791  0.74114300    -0.78300
C593        C  0.59026859  0.40834288  0.74019217     0.82400
N594        N  0.55957329  0.39116137  0.74396205    -0.80100
C595        C  0.52939038  0.15478121  0.89497328     0.79900
N596        N  0.55986917  0.16544757  0.87997730    -0.78400
C597        C  0.59110045  0.15272079  0.89145863     0.82400
N598        N  0.59177453  0.12981846  0.91868128    -0.78300
C599        C  0.56155172  0.11884815  0.93412619     0.82400
N600        N  0.53033015  0.13140310  0.92189138    -0.80100
C601        C  0.63267806  0.23563230  0.52599695     0.79900
N602        N  0.64990559  0.23703296  0.49501049    -0.78400
C603        C  0.63280265  0.23587592  0.46382864     0.82400
N604        N  0.59681875  0.23351057  0.46368979    -0.78300
C605        C  0.57866653  0.23218071  0.49492559     0.82400
N606        N  0.59694035  0.23315360  0.52591571    -0.80100
C607        C  0.90697794  0.09970942  0.46272134     0.79900
N608        N  0.92733023  0.07071959  0.46487851    -0.78400
C609        C  0.93239155  0.05476462  0.49642463     0.82400
N610        N  0.91544419  0.06735011  0.52530590    -0.78300
C611        C  0.89446039  0.09604793  0.52313606     0.82400
N612        N  0.89073339  0.11216089  0.49175796    -0.80100
O613        O  0.85776652  0.22273809  0.84907692    -0.86800
O614        O  0.87412480  0.25862806  0.65501375    -0.87000
O615        O  0.91677504  0.18897358  0.74789026    -0.88600
O616        O  0.89822201  0.30163636  0.76840485    -0.87400
O617        O  0.84899991  0.33626571  0.76697462    -0.87000
O618        O  0.88050165  0.14160567  0.74016760    -0.88400
O619        O  0.91163167  0.25783220  0.70260569    -0.86800
O620        O  0.90427524  0.23315424  0.81247630    -0.86400
Zr621      Zr  0.87921571  0.24174773  0.75430003     2.84300
O622        O  0.84216650  0.27665126  0.71904925    -1.08400
O623        O  0.84691941  0.19703841  0.78075129    -1.09100
C624        C  0.89118883  0.22631060  0.84302213     1.06300
C625        C  0.90432153  0.26288367  0.66999171     1.06200
C626        C  0.91124202  0.15561211  0.74363121     1.09200
C627        C  0.88225205  0.33145917  0.77151620     1.07000
H628        H  0.87117948  0.19816002  0.69541693     0.32600
O629        O  0.85288239  0.20816139  0.71006128    -1.29300
H630        H  0.84535409  0.28149715  0.80761219     0.32200
O631        O  0.83515783  0.26753171  0.78898132    -1.31000
O632        O  0.76032169  0.23945335  0.64061246    -0.86800
O633        O  0.74418620  0.20813228  0.83608444    -0.88300
O634        O  0.83209013  0.14428234  0.67681124    -0.86900
O635        O  0.80028033  0.33856081  0.69976409    -0.86900
O636        O  0.77993125  0.32045444  0.81172071    -0.86600
O637        O  0.81708434  0.12791015  0.79164393    -0.86400
O638        O  0.72076009  0.16355501  0.71820693    -0.86800
O639        O  0.70200809  0.27681398  0.73781346    -0.86300
O640        O  0.76977563  0.12907298  0.72193114    -0.87300
O641        O  0.73842232  0.32375796  0.74689034    -0.86500
O642        O  0.82781696  0.19182459  0.64002702    -0.86900
O643        O  0.80636315  0.16415251  0.83832410    -0.86600
O644        O  0.78745917  0.27344664  0.84830501    -0.86300
O645        O  0.80994558  0.30241279  0.65266223    -0.86700
O646        O  0.71390914  0.22767255  0.67719791    -0.87000
O647        O  0.70589699  0.20992475  0.78914974    -0.88300
Zr648      Zr  0.81530327  0.24291037  0.67524434     2.83100
Zr649      Zr  0.80265098  0.22243681  0.81440579     2.83500
Zr650      Zr  0.82043085  0.16350082  0.73704905     2.84100
Zr651      Zr  0.79782221  0.30165390  0.75312387     2.83400
Zr652      Zr  0.73853964  0.22305653  0.73593678     2.84200
O653        O  0.76516414  0.25702799  0.77970809    -1.08900
O654        O  0.78327510  0.19809087  0.70193478    -1.08400
C655        C  0.72710548  0.23424684  0.64665722     1.06300
C656        C  0.71349192  0.20520982  0.82189182     1.08900
C657        C  0.83367400  0.15912663  0.64626906     1.06500
C658        C  0.80480741  0.33294123  0.66637932     1.06800
C659        C  0.77816715  0.30531146  0.84202894     1.06400
C660        C  0.81197523  0.13367191  0.82498441     1.05900
C661        C  0.73716276  0.13396083  0.71462589     1.06400
C662        C  0.70785938  0.31021128  0.74129159     1.05900
H663        H  0.76213161  0.16936301  0.78148470     0.32600
O664        O  0.77567022  0.18805903  0.77097474    -1.30000
H665        H  0.75642092  0.28223919  0.69495981     0.32600
O666        O  0.77129372  0.26776132  0.70955016    -1.31400
O667        O  0.25773433  0.23429563  0.14412170    -0.86800
O668        O  0.24079096  0.26736951  0.33690932    -0.87000
O669        O  0.20082538  0.19255500  0.24071788    -0.88600
O670        O  0.21777121  0.30744234  0.22369480    -0.87400
O671        O  0.26646838  0.34263687  0.22813250    -0.87000
O672        O  0.23670970  0.14524259  0.24916466    -0.88400
O673        O  0.20312502  0.26392217  0.28962115    -0.86800
O674        O  0.21094906  0.24445315  0.18071937    -0.86400
Zr675      Zr  0.23636407  0.24727114  0.23878769     2.84300
O676        O  0.27282452  0.28130431  0.27525860    -1.08400
O677        O  0.26880061  0.20276322  0.21189437    -1.09100
C678        C  0.22453672  0.24004641  0.15004765     1.06300
C679        C  0.21050828  0.27116218  0.32180384     1.06200
C680        C  0.20629832  0.15902553  0.24396920     1.09200
C681        C  0.23373420  0.33738526  0.22109201     1.07000
H682        H  0.24292474  0.20297745  0.29702086     0.32600
O683        O  0.26169096  0.21292806  0.28307782    -1.29300
H684        H  0.27105844  0.28767671  0.18686974     0.32200
O685        O  0.28097086  0.27314899  0.20521273    -1.31000
O686        O  0.35469928  0.24161201  0.35334129    -0.86800
O687        O  0.37235501  0.21361492  0.15675185    -0.88300
O688        O  0.27932283  0.14891468  0.31535265    -0.86900
O689        O  0.31398598  0.34191460  0.29761629    -0.86900
O690        O  0.33394046  0.32674895  0.18329570    -0.86600
O691        O  0.29982423  0.13258998  0.20191757    -0.86400
O692        O  0.39473457  0.16869657  0.27005338    -0.86800
O693        O  0.41309388  0.28250097  0.25388402    -0.86300
O694        O  0.34544601  0.13425774  0.27050811    -0.87300
O695        O  0.37653822  0.32959233  0.24616252    -0.86500
O696        O  0.28378656  0.19587386  0.35305650    -0.86900
O697        O  0.30761992  0.16938829  0.15484609    -0.86600
O698        O  0.32953217  0.27997801  0.14517822    -0.86300
O699        O  0.30472001  0.30474198  0.34403448    -0.86700
O700        O  0.40051850  0.23163710  0.31574168    -0.87000
O701        O  0.40886309  0.21591059  0.20482016    -0.88300
Zr702      Zr  0.29927730  0.24687436  0.31883177     2.83100
Zr703      Zr  0.31311445  0.22845392  0.17819752     2.83500
Zr704      Zr  0.29493112  0.16882432  0.25587181     2.84100
Zr705      Zr  0.31708131  0.30732528  0.24216991     2.83400
Zr706      Zr  0.37596906  0.22891167  0.25732384     2.84200
O707        O  0.34947142  0.26321808  0.21417997    -1.08900
O708        O  0.33201996  0.20273269  0.29165893    -1.08400
C709        C  0.38792034  0.23641662  0.34674466     1.06300
C710        C  0.40277144  0.21076273  0.17188552     1.08900
C711        C  0.27721731  0.16347490  0.34606511     1.06500
C712        C  0.30959342  0.33548477  0.33097653     1.06800
C713        C  0.33680886  0.31207615  0.15278961     1.06400
C714        C  0.30376031  0.13866841  0.16849612     1.05900
C715        C  0.37870505  0.13899246  0.27396301     1.06400
C716        C  0.40726851  0.31590250  0.24989428     1.05900
H717        H  0.35306451  0.17544341  0.21128893     0.32600
O718        O  0.33934145  0.19402343  0.22190760    -1.30000
H719        H  0.35863734  0.28699145  0.29989685     0.32600
O720        O  0.34353366  0.27281565  0.28521503    -1.31400
C721        C  0.84484028  0.13797593  0.61573843    -0.00500
C722        C  0.83190630  0.14702520  0.58237468    -0.12300
C723        C  0.84619029  0.13243725  0.55187156     0.01800
C724        C  0.87510448  0.10905293  0.55441349    -0.00600
C725        C  0.88629294  0.09826707  0.58790832    -0.12300
C726        C  0.87126218  0.11212387  0.61839522     0.01700
H727        H  0.81081522  0.16606572  0.58008908     0.14600
H728        H  0.90770421  0.07969349  0.59047648     0.14600
C729        C  0.88495908  0.10049613  0.65180717     0.36300
C730        C  0.82984619  0.14152777  0.51874981     0.36200
N731        N  0.89591905  0.09066512  0.67842020    -0.44100
N732        N  0.81640317  0.14864862  0.49237128    -0.44100
C733        C  0.65392540  0.23736136  0.55891571    -0.00500
C734        C  0.68430043  0.25843410  0.55894296    -0.12300
C735        C  0.70783563  0.25842030  0.58730821     0.01800
C736        C  0.70190553  0.23621909  0.61646983    -0.00600
C737        C  0.67073128  0.21608184  0.61708448    -0.12300
C738        C  0.64683986  0.21655149  0.58874796     0.01700
H739        H  0.68975512  0.27515515  0.53651480     0.14600
H740        H  0.66536616  0.19922281  0.63940802     0.14600
C741        C  0.61634182  0.19404622  0.59001160     0.36300
C742        C  0.73697090  0.28268812  0.58629689     0.36200
N743        N  0.59178715  0.17612642  0.59059029    -0.44100
N744        N  0.76010286  0.30238213  0.58556778    -0.44100
C745        C  0.62410594  0.16620308  0.87638152    -0.00500
C746        C  0.62597642  0.20192691  0.86756944    -0.12300
C747        C  0.65589194  0.21575444  0.85148387     0.01800
C748        C  0.68458987  0.19368927  0.84431755    -0.00600
C749        C  0.68355112  0.15840289  0.85439901    -0.12300
C750        C  0.65345808  0.14437090  0.87009383     0.01700
H751        H  0.60386984  0.21902764  0.87290843     0.14600
H752        H  0.70555828  0.14136743  0.84819540     0.14600
C753        C  0.65248546  0.10709738  0.87666539     0.36300
C754        C  0.65654196  0.25249442  0.84227289     0.36200
N755        N  0.65186195  0.07716301  0.88161709    -0.44100
N756        N  0.65712041  0.28194791  0.83498148    -0.44100
C757        C  0.62246606  0.38619556  0.73613444    -0.00500
C758        C  0.61833186  0.35233606  0.72164653    -0.12300
C759        C  0.64534692  0.32732786  0.72257537     0.01800
C760        C  0.67788363  0.33569251  0.73856552    -0.00600
C761        C  0.68256993  0.37022374  0.75141862    -0.12300
C762        C  0.65550058  0.39532307  0.75012148     0.01700
H763        H  0.59336972  0.34497414  0.70994613     0.14600
H764        H  0.70739545  0.37769278  0.76328203     0.14600
C765        C  0.66198861  0.42968656  0.76459551     0.36300
C766        C  0.63868264  0.29370934  0.70631007     0.36200
N767        N  0.66713898  0.45735395  0.77598955    -0.44100
N768        N  0.63297392  0.26697065  0.69306286    -0.44100
C769        C  0.70529565  0.23985544  0.37553275    -0.00500
C770        C  0.67369973  0.22041795  0.37261686    -0.12300
C771        C  0.64878550  0.21949014  0.40016119     0.01800
C772        C  0.65493397  0.23865119  0.43134546    -0.00600
C773        C  0.68596858  0.25874030  0.43364383    -0.12300
C774        C  0.71082445  0.25952816  0.40649687     0.01700
H775        H  0.66879066  0.20511309  0.34907638     0.14600
H776        H  0.69114074  0.27393822  0.45721149     0.14600
C777        C  0.74127616  0.28169369  0.41103328     0.36300
C778        C  0.61837200  0.19712017  0.39659641     0.36200
N779        N  0.76562266  0.29951448  0.41474206    -0.44100
N780        N  0.59406205  0.17905839  0.39386534    -0.44100
C781        C  0.86602707  0.14808343  0.37102586    -0.00500
C782        C  0.88331422  0.16813832  0.39688689    -0.12300
C783        C  0.89967177  0.15235179  0.42542763     0.01800
C784        C  0.89868402  0.11578566  0.42887532    -0.00600
C785        C  0.88401616  0.09521738  0.40204298    -0.12300
C786        C  0.86787000  0.11102629  0.37293546     0.01700
H787        H  0.88402392  0.19646473  0.39500666     0.14600
H788        H  0.88348982  0.06690542  0.40476378     0.14600
C789        C  0.85251084  0.08853443  0.34651109     0.36300
C790        C  0.91744765  0.17409589  0.45101662     0.36200
N791        N  0.84051287  0.07028161  0.32534257    -0.44100
N792        N  0.93201109  0.19112866  0.47157994    -0.44100
C793        C  0.56064399  0.09601757  0.04221739    -0.00500
C794        C  0.59294602  0.09417579  0.02446396    -0.12300
C795        C  0.59431578  0.09592744  0.98781949     0.01800
C796        C  0.56269138  0.10017316  0.96850192    -0.00600
C797        C  0.53074426  0.09331440  0.98584250    -0.12300
C798        C  0.52956514  0.09070296  0.02253860     0.01700
H799        H  0.61741955  0.09507665  0.03909766     0.14600
H800        H  0.50626129  0.09307249  0.97120480     0.14600
C801        C  0.49610211  0.08405478  0.03914542     0.36300
C802        C  0.62875118  0.09602326  0.97186030     0.36200
N803        N  0.46927002  0.07815357  0.05220860    -0.44100
N804        N  0.65684583  0.09583405  0.96019281    -0.44100
C805        C  0.49773755  0.16814300  0.12875383    -0.00500
C806        C  0.46490147  0.15608783  0.11626219    -0.12300
C807        C  0.43319262  0.17148127  0.12732061     0.01800
C808        C  0.43394278  0.19954958  0.15145353    -0.00600
C809        C  0.46658814  0.21318080  0.16184225    -0.12300
C810        C  0.49813224  0.19792396  0.15111560     0.01700
H811        H  0.46377105  0.13381873  0.09863428     0.14600
H812        H  0.46746150  0.23511914  0.18002375     0.14600
C813        C  0.53007884  0.21347175  0.16451559     0.36300
C814        C  0.40045654  0.15672716  0.11499853     0.36200
N815        N  0.55542775  0.22610495  0.17563226    -0.44100
N816        N  0.37430250  0.14498098  0.10482216    -0.44100
C817        C  0.62638119  0.15803368  0.13241077    -0.00500
C818        C  0.62962886  0.19471604  0.13177434    -0.12300
C819        C  0.66090394  0.21118404  0.14178888     0.01800
C820        C  0.68971064  0.19095198  0.15294670    -0.00600
C821        C  0.68709303  0.15418404  0.15253884    -0.12300
C822        C  0.65577838  0.13755416  0.14212495     0.01700
H823        H  0.60758605  0.21065975  0.12329057     0.14600
H824        H  0.70893448  0.13852137  0.16207366     0.14600
C825        C  0.65389112  0.09977845  0.14386402     0.36300
C826        C  0.66277124  0.24896530  0.14083827     0.36200
N827        N  0.65279082  0.06949645  0.14556294    -0.44100
N828        N  0.66429355  0.27925068  0.13987241    -0.44100
C829        C  0.43772612  0.34096629  0.25034363    -0.00500
C830        C  0.46718188  0.33331935  0.27121895    -0.12300
C831        C  0.49540073  0.35695247  0.27401035     0.01800
C832        C  0.49546057  0.38878802  0.25461915    -0.00600
C833        C  0.46586219  0.39682134  0.23419790    -0.12300
C834        C  0.43712860  0.37359301  0.23211549     0.01700
H835        H  0.46776547  0.30919831  0.28632261     0.14600
H836        H  0.46554644  0.42088880  0.21901226     0.14600
C837        C  0.40773184  0.38391301  0.21040528     0.36300
C838        C  0.52335338  0.34853256  0.29835555     0.36200
N839        N  0.38407091  0.39245378  0.19327561    -0.44100
N840        N  0.54561798  0.34205302  0.31807871    -0.44100
C841        C  0.68117954  0.34265519  0.24774626    -0.00500
C842        C  0.68540589  0.37857930  0.25570761    -0.12300
C843        C  0.65692107  0.40219484  0.25473623     0.01800
C844        C  0.62283370  0.38991950  0.24636836    -0.00600
C845        C  0.61902829  0.35415545  0.23753757    -0.12300
C846        C  0.64733862  0.33078473  0.23807408     0.01700
H847        H  0.71117626  0.38839207  0.26281014     0.14600
H848        H  0.59347917  0.34396027  0.23005028     0.14600
C849        C  0.64049103  0.29493716  0.22781612     0.36300
C850        C  0.66376426  0.43854300  0.26269868     0.36200
N851        N  0.63467808  0.26626638  0.21970171    -0.44100
N852        N  0.66979851  0.46764088  0.26888359    -0.44100
C853        C  0.93264963  0.42600633  0.80797780    -0.00500
C854        C  0.94944551  0.39347195  0.81293912    -0.12300
C855        C  0.93485041  0.36231310  0.79994171     0.01800
C856        C  0.90237749  0.36325521  0.78183669    -0.00600
C857        C  0.88653151  0.39601402  0.77563491    -0.12300
C858        C  0.90099585  0.42700864  0.78847064     0.01700
H859        H  0.97415086  0.39222750  0.82715332     0.14600
H860        H  0.86199010  0.39757760  0.76115278     0.14600
C861        C  0.88158170  0.45896365  0.78208072     0.36300
C862        C  0.95382539  0.33013492  0.80607703     0.36200
N863        N  0.86584626  0.48439508  0.77676017    -0.44100
N864        N  0.96966992  0.30467842  0.81081652    -0.44100
C865        C  0.91037790  0.61597637  0.79178219    -0.00500
C866        C  0.92878811  0.59550779  0.76737937    -0.12300
C867        C  0.94447446  0.56401027  0.77792011     0.01800
C868        C  0.94300895  0.55384534  0.81359293    -0.00600
C869        C  0.92612062  0.57530033  0.83815447    -0.12300
C870        C  0.90898284  0.60573606  0.82734761     0.01700
H871        H  0.92892736  0.60295641  0.73983644     0.14600
H872        H  0.92416098  0.56694268  0.86536602     0.14600
C873        C  0.88760223  0.62439333  0.85255102     0.36300
C874        C  0.96042917  0.54183679  0.75158808     0.36200
N875        N  0.86995902  0.63890932  0.87259630    -0.44100
N876        N  0.97288867  0.52388761  0.73044449    -0.44100
C877        C  0.79951854  0.42323775  0.59628804    -0.00500
C878        C  0.81950371  0.39379590  0.58686824    -0.12300
C879        C  0.82206808  0.36451702  0.60933965     0.01800
C880        C  0.80342536  0.36366754  0.64173557    -0.00600
C881        C  0.78261409  0.39277968  0.65056219    -0.12300
C882        C  0.78072252  0.42229995  0.62856338     0.01700
H883        H  0.83480230  0.39444421  0.56281099     0.14600
H884        H  0.76782670  0.39264289  0.67495492     0.14600
C885        C  0.75952280  0.45156663  0.64016693     0.36300
C886        C  0.84602345  0.33686513  0.59944589     0.36200
N887        N  0.74293331  0.47522825  0.64955698    -0.44100
N888        N  0.86542658  0.31485364  0.59156506    -0.44100
C889        C  0.81201797  0.55007316  0.59976649    -0.00500
C890        C  0.82495526  0.54586966  0.63434957    -0.12300
C891        C  0.82504460  0.57352574  0.65866763     0.01800
C892        C  0.81163814  0.60666322  0.64892992    -0.00600
C893        C  0.80023026  0.61140890  0.61391354    -0.12300
C894        C  0.80032559  0.58369489  0.58947425     0.01700
H895        H  0.83496696  0.52058487  0.64272131     0.14600
H896        H  0.79026707  0.63676291  0.60570054     0.14600
C897        C  0.78681643  0.59033842  0.55463748     0.36300
C898        C  0.83999090  0.56722645  0.69306421     0.36200
N899        N  0.77597804  0.59574762  0.52671142    -0.44100
N900        N  0.85205128  0.56224316  0.72057660    -0.44100
C901        C  0.62164677  0.80084300  0.88168509    -0.00500
C902        C  0.61960820  0.76712317  0.86663520    -0.12300
C903        C  0.64931322  0.75080537  0.85275597     0.01800
C904        C  0.68191265  0.76811569  0.85406016    -0.00600
C905        C  0.68485131  0.80010313  0.87193317    -0.12300
C906        C  0.65506344  0.81674489  0.88559428     0.01700
H907        H  0.59452613  0.75372774  0.86470644     0.14600
H908        H  0.71006443  0.81341389  0.87287007     0.14600
C909        C  0.65967650  0.85107380  0.90089174     0.36300
C910        C  0.64568986  0.71665277  0.83661094     0.36200
N911        N  0.66403740  0.87858798  0.91296942    -0.44100
N912        N  0.64301885  0.68929733  0.82368635    -0.44100
C913        C  0.62167507  0.57830178  0.74130261    -0.00500
C914        C  0.65205443  0.56739370  0.75931824    -0.12300
C915        C  0.68164661  0.58955380  0.76271927     0.01800
C916        C  0.68125412  0.62394794  0.74823758    -0.00600
C917        C  0.65134392  0.63411823  0.72913325    -0.12300
C918        C  0.62222612  0.61190447  0.72517020     0.01700
H919        H  0.65236032  0.54180589  0.77174818     0.14600
H920        H  0.65077101  0.65965363  0.71656654     0.14600
C921        C  0.59409187  0.62438793  0.70295031     0.36300
C922        C  0.71148351  0.57618106  0.78191726     0.36200
N923        N  0.57249602  0.63538251  0.68456045    -0.44100
N924        N  0.73523972  0.56472883  0.79708134    -0.44100
C925        C  0.93999316  0.94701590  0.49949182    -0.00500
C926        C  0.94769416  0.96536352  0.53067572    -0.12300
C927        C  0.95302222  0.00160098  0.52972007     0.01800
C928        C  0.94849084  0.01950734  0.49760598    -0.00600
C929        C  0.95023788  0.00016627  0.46625581    -0.12300
C930        C  0.94683154  0.96377982  0.46703293     0.01700
H931        H  0.94630179  0.95229703  0.55595890     0.14600
H932        H  0.95040206  0.01339468  0.44101263     0.14600
C933        C  0.94824244  0.94497404  0.43410469     0.36300
C934        C  0.96147409  0.01998283  0.56184082     0.36200
N935        N  0.94996689  0.93016851  0.40759073    -0.44100
N936        N  0.96899605  0.03479338  0.58733182    -0.44100
C937        C  0.86820490  0.86632874  0.56958072    -0.00500
C938        C  0.83171021  0.86206265  0.57340166    -0.12300
C939        C  0.81780578  0.84628420  0.60330253     0.01800
C940        C  0.84064475  0.83512079  0.63000479    -0.00600
C941        C  0.87688136  0.84107694  0.62730616    -0.12300
C942        C  0.89094682  0.85637875  0.59710258     0.01700
H943        H  0.81407238  0.87016091  0.55248654     0.14600
H944        H  0.89434039  0.83189532  0.64794446     0.14600
C945        C  0.92870381  0.85849771  0.59374794     0.36300
C946        C  0.78031003  0.84086625  0.60549755     0.36200
N947        N  0.95897856  0.85987185  0.59101758    -0.44100
N948        N  0.75021999  0.83669061  0.60693902    -0.44100
C949        C  0.65107685  0.72911207  0.56686911    -0.00500
C950        C  0.68695503  0.73754104  0.56234021    -0.12300
C951        C  0.71104078  0.73705723  0.59014078     0.01800
C952        C  0.69983460  0.72835559  0.62454267    -0.00600
C953        C  0.66377731  0.72069506  0.62955006    -0.12300
C954        C  0.63955115  0.72094372  0.60130149     0.01700
H955        H  0.69676877  0.74470241  0.53655309     0.14600
H956        H  0.65438433  0.71422613  0.65567690     0.14600
C957        C  0.60340619  0.71203292  0.60852639     0.36300
C958        C  0.74695054  0.74658609  0.58209602     0.36200
N959        N  0.57445318  0.70487170  0.61454756    -0.44100
N960        N  0.77564890  0.75411577  0.57533766    -0.44100
C961        C  0.69911756  0.73133080  0.38059038    -0.00500
C962        C  0.66283534  0.73876071  0.37658052    -0.12300
C963        C  0.63896723  0.73706089  0.40511215     0.01800
C964        C  0.65073912  0.72691805  0.43889157    -0.00600
C965        C  0.68680028  0.71866453  0.44257567    -0.12300
C966        C  0.71073886  0.72119749  0.41457891     0.01700
H967        H  0.65307254  0.74725966  0.35121350     0.14600
H968        H  0.69695452  0.71066861  0.46799513     0.14600
C969        C  0.74721510  0.71380796  0.42237655     0.36300
C970        C  0.60308573  0.74781775  0.39927901     0.36200
N971        N  0.77642788  0.70819138  0.42885004    -0.44100
N972        N  0.57434592  0.75673987  0.39478715    -0.44100
C973        C  0.83216993  0.83753480  0.37830995    -0.00500
C974        C  0.81801113  0.82682674  0.41059606    -0.12300
C975        C  0.83014246  0.84079055  0.44219773     0.01800
C976        C  0.85676393  0.86688415  0.44176260    -0.00600
C977        C  0.86822484  0.87989658  0.40909748    -0.12300
C978        C  0.85670157  0.86516542  0.37755747     0.01700
H979        H  0.79855323  0.80599892  0.41124998     0.14600
H980        H  0.88767920  0.90051749  0.40798044     0.14600
C981        C  0.87309814  0.87671560  0.34534409     0.36300
C982        C  0.81550730  0.82626888  0.47411169     0.36200
N983        N  0.88655390  0.88591341  0.31967738    -0.44100
N984        N  0.80362124  0.81419150  0.49937984    -0.44100
C985        C  0.55618053  0.87642159  0.03504003    -0.00500
C986        C  0.52385264  0.88007125  0.01758711    -0.12300
C987        C  0.52250174  0.88029383  0.98087880     0.01800
C988        C  0.55410064  0.87643186  0.96157322    -0.00600
C989        C  0.58597365  0.88301743  0.97911032    -0.12300
C990        C  0.58726676  0.88334715  0.01582156     0.01700
H991        H  0.49944463  0.87840654  0.03218740     0.14600
H992        H  0.61043934  0.88374872  0.96452511     0.14600
C993        C  0.62114813  0.88755283  0.03248682     0.36300
C994        C  0.48825355  0.88119878  0.96455623     0.36200
N995        N  0.64843125  0.89103184  0.04552807    -0.44100
N996        N  0.46040858  0.88215301  0.95232028    -0.44100
C997        C  0.68225764  0.77752819  0.15106527    -0.00500
C998        C  0.67938625  0.81384170  0.14648554    -0.12300
C999        C  0.64937361  0.82825995  0.13114672     0.01800
C1000       C  0.62216899  0.80587936  0.11976165    -0.00600
C1001       C  0.62599880  0.76936955  0.12279578    -0.12300
C1002       C  0.65588501  0.75504230  0.13849750     0.01700
H1003       H  0.69969292  0.83101585  0.15680187     0.14600
H1004       H  0.60520299  0.75212070  0.11371749     0.14600
C1005       C  0.65863250  0.71746602  0.14238485     0.36300
C1006       C  0.64564543  0.86594642  0.13063026     0.36200
N1007       N  0.66093705  0.68737451  0.14554748    -0.44100
N1008       N  0.64247302  0.89612528  0.13056662    -0.44100
C1009       C  0.62175273  0.58076390  0.25425999    -0.00500
C1010       C  0.61901692  0.61288670  0.27242660    -0.12300
C1011       C  0.64588627  0.63802397  0.27175637     0.01800
C1012       C  0.67734354  0.63134252  0.25313628    -0.00600
C1013       C  0.68070165  0.59859161  0.23594747    -0.12300
C1014       C  0.65324918  0.57366802  0.23601860     0.01700
H1015       H  0.59512586  0.61890351  0.28680333     0.14600
H1016       H  0.70447937  0.59280495  0.22132449     0.14600
C1017       C  0.65709411  0.54238505  0.21504481     0.36300
C1018       C  0.64001375  0.67031470  0.29064809     0.36200
N1019       N  0.66003607  0.51746426  0.19792560    -0.44100
N1020       N  0.63468296  0.69614050  0.30568292    -0.44100
C1021       C  0.92752772  0.55612889  0.16845914    -0.00500
C1022       C  0.92140436  0.55486354  0.20492009    -0.12300
C1023       C  0.90822175  0.58387924  0.22291272     0.01800
C1024       C  0.90198920  0.61524156  0.20460646    -0.00600
C1025       C  0.90914311  0.61711998  0.16841489    -0.12300
C1026       C  0.92134441  0.58764762  0.15007797     0.01700
H1027       H  0.92623032  0.53081834  0.21937409     0.14600
H1028       H  0.90287100  0.64091089  0.15405949     0.14600
C1029       C  0.92379507  0.58940442  0.11222085     0.36300
C1030       C  0.90014985  0.58055963  0.25988677     0.36200
N1031       N  0.92513901  0.59077916  0.08183937    -0.44100
N1032       N  0.89351778  0.57782616  0.28946334    -0.44100
C1033       C  0.93093232  0.42891028  0.16998241    -0.00500
C1034       C  0.91849082  0.43121360  0.20476631    -0.12300
C1035       C  0.90677094  0.40156288  0.22279959     0.01800
C1036       C  0.90727364  0.36861967  0.20609420    -0.00600
C1037       C  0.92174539  0.36568616  0.17226872    -0.12300
C1038       C  0.93364678  0.39543953  0.15411483     0.01700
H1039       H  0.91759259  0.45638890  0.21801173     0.14600
H1040       H  0.92185259  0.34038925  0.15919488     0.14600
C1041       C  0.94663229  0.39088377  0.11872610     0.36300
C1042       C  0.89424368  0.40563400  0.25844384     0.36200
N1043       N  0.95710290  0.38701301  0.09041063    -0.44100
N1044       N  0.88445263  0.40906746  0.28705644    -0.44100
C1045       C  0.79849748  0.55585436  0.40806353    -0.00500
C1046       C  0.78131640  0.55299174  0.37529477    -0.12300
C1047       C  0.78222370  0.57987753  0.35022650     0.01800
C1048       C  0.80028215  0.61142845  0.35756574    -0.00600
C1049       C  0.81568680  0.61526403  0.39126532    -0.12300
C1050       C  0.81507149  0.58793975  0.41630291     0.01700
H1051       H  0.76766244  0.52890374  0.36864844     0.14600
H1052       H  0.82928731  0.63938663  0.39782558     0.14600
C1053       C  0.83327803  0.59299795  0.44921632     0.36300
C1054       C  0.76408262  0.57394530  0.31736241     0.36200
N1055       N  0.84800050  0.59735607  0.47550807    -0.44100
N1056       N  0.74952927  0.56869304  0.29113999    -0.44100
C1057       C  0.80641359  0.42906672  0.40367805    -0.00500
C1058       C  0.79528739  0.43305796  0.36846206    -0.12300
C1059       C  0.79644595  0.40548798  0.34406432     0.01800
C1060       C  0.80877837  0.37193841  0.35425801    -0.00600
C1061       C  0.82007460  0.36784881  0.38958228    -0.12300
C1062       C  0.81914496  0.39583969  0.41401504     0.01700
H1063       H  0.78532719  0.45817156  0.35954020     0.14600
H1064       H  0.83017818  0.34271539  0.39823405     0.14600
C1065       C  0.83267877  0.39011287  0.44902297     0.36300
C1066       C  0.78423431  0.41293233  0.30886944     0.36200
N1067       N  0.84359116  0.38597015  0.47714555    -0.44100
N1068       N  0.77452573  0.41929036  0.28073008    -0.44100
C1069       C  0.43557190  0.62347447  0.74937684    -0.00500
C1070       C  0.43548517  0.59171926  0.76853676    -0.12300
C1071       C  0.46387614  0.56793706  0.76672074     0.01800
C1072       C  0.49326585  0.57565995  0.74540319    -0.00600
C1073       C  0.49244706  0.60645647  0.72517902    -0.12300
C1074       C  0.46440651  0.63015031  0.72688319     0.01700
H1075       H  0.41348846  0.58573102  0.78564781     0.14600
H1076       H  0.51410389  0.61217344  0.70772883     0.14600
C1077       C  0.46598102  0.66045182  0.70422913     0.36300
C1078       C  0.46272433  0.53664601  0.78798884     0.36200
N1079       N  0.46803093  0.68441421  0.68571254    -0.44100
N1080       N  0.46171958  0.51149529  0.80497987    -0.44100
C1081       C  0.43365619  0.77016413  0.84807591    -0.00500
C1082       C  0.43272153  0.80596454  0.85623004    -0.12300
C1083       C  0.46287890  0.82327499  0.86793820     0.01800
C1084       C  0.49410933  0.80409493  0.87341010    -0.00600
C1085       C  0.49465217  0.76796502  0.86592454    -0.12300
C1086       C  0.46499252  0.75108276  0.85253432     0.01700
H1087       H  0.40903189  0.82095707  0.85093190     0.14600
H1088       H  0.51853192  0.75292116  0.86991254     0.14600
C1089       C  0.46774086  0.71460191  0.84259411     0.36300
C1090       C  0.46192421  0.86102166  0.87036117     0.36200
N1091       N  0.47045128  0.68547543  0.83446788    -0.44100
N1092       N  0.46095330  0.89132597  0.87152796    -0.44100
C1093       C  0.02036082  0.47987857  0.88558936    -0.00500
C1094       C  0.03541981  0.44632179  0.88717274    -0.12300
C1095       C  0.07179497  0.44224555  0.88943418     0.01800
C1096       C  0.09347736  0.47237755  0.89264750    -0.00600
C1097       C  0.07720741  0.50462501  0.90056936    -0.12300
C1098       C  0.04084017  0.50875224  0.89670355     0.01700
H1099       H  0.01955582  0.42337145  0.88147458     0.14600
H1100       H  0.09313203  0.52764760  0.90574758     0.14600
C1101       C  0.02601836  0.54333471  0.90134237     0.36300
C1102       C  0.08530711  0.40743002  0.88301360     0.36200
N1103       N  0.01414463  0.57104825  0.90496100    -0.44100
N1104       N  0.09529226  0.37938444  0.87706413    -0.44100
C1105       C  0.21250621  0.60223638  0.80622526    -0.00500
C1106       C  0.20008528  0.57578310  0.78396645    -0.12300
C1107       C  0.18667003  0.54454611  0.79780897     0.01800
C1108       C  0.18567806  0.53946739  0.83463743    -0.00600
C1109       C  0.19679010  0.56651575  0.85695852    -0.12300
C1110       C  0.21056064  0.59764522  0.84301022     0.01700
H1111       H  0.20165262  0.57924207  0.75569780     0.14600
H1112       H  0.19599753  0.56276239  0.88522657     0.14600
C1113       C  0.22421074  0.62377193  0.86684250     0.36300
C1114       C  0.17353475  0.51843681  0.77361410     0.36200
N1115       N  0.23511672  0.64474632  0.88593436    -0.44100
N1116       N  0.16280357  0.49787717  0.75395757    -0.44100
C1117       C  0.29902210  0.54416164  0.59907172    -0.00500
C1118       C  0.28527445  0.53943119  0.63334610    -0.12300
C1119       C  0.28772610  0.56552529  0.65933036     0.01800
C1120       C  0.30381172  0.59786426  0.65153638    -0.00600
C1121       C  0.31655422  0.60315173  0.61695847    -0.12300
C1122       C  0.31446106  0.57681666  0.59099747     0.01700
H1123       H  0.27290719  0.51475916  0.64027073     0.14600
H1124       H  0.32879719  0.62794225  0.61023082     0.14600
C1125       C  0.32981442  0.58351262  0.55695148     0.36300
C1126       C  0.27276254  0.55859202  0.69351141     0.36200
N1127       N  0.34218322  0.58867500  0.52963201    -0.44100
N1128       N  0.26089377  0.55300209  0.72095889    -0.44100
C1129       C  0.23180121  0.84865528  0.56588336    -0.00500
C1130       C  0.24496927  0.86984451  0.59297982    -0.12300
C1131       C  0.25894022  0.85485517  0.62349555     0.01800
C1132       C  0.26028148  0.81791145  0.62658314    -0.00600
C1133       C  0.24571659  0.79711812  0.59955785    -0.12300
C1134       C  0.23146175  0.81210949  0.56956716     0.01700
H1135       H  0.24497024  0.89813283  0.58995134     0.14600
H1136       H  0.24486822  0.76878408  0.60184796     0.14600
C1137       C  0.21548250  0.78943449  0.54359081     0.36300
C1138       C  0.27141070  0.87810887  0.65075231     0.36200
N1139       N  0.20246124  0.77111451  0.52310143    -0.44100
N1140       N  0.28087094  0.89705107  0.67258396    -0.44100
C1141       C  0.41039417  0.72531274  0.62567370    -0.00500
C1142       C  0.40249506  0.70577520  0.59538740    -0.12300
C1143       C  0.42600112  0.70404148  0.56686265     0.01800
C1144       C  0.45800725  0.72320536  0.56721338    -0.00600
C1145       C  0.46664262  0.74186153  0.59776683    -0.12300
C1146       C  0.44361831  0.74284024  0.62685296     0.01700
H1147       H  0.37816313  0.69098585  0.59424952     0.14600
H1148       H  0.49106323  0.75653305  0.59861728     0.14600
C1149       C  0.45510687  0.76248648  0.65726589     0.36300
C1150       C  0.41734804  0.68090170  0.53804785     0.36200
N1151       N  0.46482055  0.77783595  0.68167949    -0.44100
N1152       N  0.41081977  0.66212093  0.51503986    -0.44100
C1153       C  0.44090897  0.33525067  0.75051797    -0.00500
C1154       C  0.43535254  0.37061789  0.74078544    -0.12300
C1155       C  0.46264738  0.39556044  0.74179176     0.01800
C1156       C  0.49671404  0.38530633  0.75222174    -0.00600
C1157       C  0.50172074  0.35036607  0.76350022    -0.12300
C1158       C  0.47455042  0.32561205  0.76286107     0.01700
H1159       H  0.40958330  0.37885971  0.73183240     0.14600
H1160       H  0.52737792  0.34199075  0.77272695     0.14600
C1161       C  0.48206859  0.29092150  0.77612081     0.36300
C1162       C  0.45502922  0.43109181  0.73124592     0.36200
N1163       N  0.48852648  0.26328643  0.78689404    -0.44100
N1164       N  0.44886576  0.45966623  0.72306869    -0.44100
C1165       C  0.43276754  0.19177733  0.85042822    -0.00500
C1166       C  0.45997623  0.21552417  0.85705606    -0.12300
C1167       C  0.49131677  0.20439194  0.87265569     0.01800
C1168       C  0.49552315  0.16878465  0.88219829    -0.00600
C1169       C  0.46730310  0.14554444  0.87757273    -0.12300
C1170       C  0.43618392  0.15664027  0.86137763     0.01700
H1171       H  0.45709509  0.24264725  0.84897085     0.14600
H1172       H  0.47030633  0.11818859  0.88478409     0.14600
C1173       C  0.40954006  0.13081357  0.85375875     0.36300
C1174       C  0.51845839  0.23019817  0.87856582     0.36200
N1175       N  0.38874841  0.10955207  0.84758127    -0.44100
N1176       N  0.53983208  0.25130479  0.88316058    -0.44100
C1177       C  0.31498744  0.36072788  0.64260813    -0.00500
C1178       C  0.30445609  0.35589670  0.60720447    -0.12300
C1179       C  0.30196684  0.38423362  0.58347659     0.01800
C1180       C  0.31117895  0.41833403  0.59461063    -0.00600
C1181       C  0.32304336  0.42271307  0.62948688    -0.12300
C1182       C  0.32425299  0.39500824  0.65344525     0.01700
H1183       H  0.29678810  0.33003146  0.59819109     0.14600
H1184       H  0.33067431  0.44851294  0.63877737     0.14600
C1185       C  0.33394960  0.40349999  0.68921510     0.36300
C1186       C  0.28776957  0.37769644  0.54888719     0.36200
N1187       N  0.34114918  0.41073997  0.71789709    -0.44100
N1188       N  0.27604988  0.37201504  0.52136641    -0.44100
C1189       C  0.18838047  0.41250346  0.83039030    -0.00500
C1190       C  0.19670896  0.41569383  0.79451005    -0.12300
C1191       C  0.20999882  0.38745302  0.77551746     0.01800
C1192       C  0.21543201  0.35532588  0.79256467    -0.00600
C1193       C  0.20572557  0.35132003  0.82792723    -0.12300
C1194       C  0.19191254  0.37954189  0.84696390     0.01700
H1195       H  0.19296820  0.44047156  0.78115403     0.14600
H1196       H  0.21041898  0.32650345  0.84108908     0.14600
C1197       C  0.18334067  0.37411162  0.88354483     0.36300
C1198       C  0.21766513  0.39201221  0.73860179     0.36200
N1199       N  0.17651871  0.36891787  0.91274836    -0.44100
N1200       N  0.22340863  0.39583785  0.70896166    -0.44100
C1201       C  0.17021887  0.01614136  0.49862272    -0.00500
C1202       C  0.16628666  0.99978123  0.53161539    -0.12300
C1203       C  0.16796330  0.96340193  0.53461606     0.01800
C1204       C  0.17085084  0.94295525  0.50370806    -0.00600
C1205       C  0.16458085  0.95914497  0.47111560    -0.12300
C1206       C  0.16562432  0.99555062  0.46805003     0.01700
H1207       H  0.16685573  0.01522184  0.55556630     0.14600
H1208       H  0.16401238  0.94351191  0.44726796     0.14600
C1209       C  0.16626550  0.00986565  0.43296008     0.36300
C1210       C  0.17165661  0.94897207  0.56959706     0.36200
N1211       N  0.16722758  0.02021828  0.40438460    -0.44100
N1212       N  0.17519186  0.93778500  0.59768197    -0.44100
C1213       C  0.23040643  0.10896624  0.56350119    -0.00500
C1214       C  0.23388112  0.14527036  0.56421485    -0.12300
C1215       C  0.24842213  0.16223249  0.59288901     0.01800
C1216       C  0.26044951  0.14250343  0.62236103    -0.00600
C1217       C  0.25495379  0.10606700  0.62263008    -0.12300
C1218       C  0.24009273  0.08909534  0.59340763     0.01700
H1219       H  0.22547387  0.16070920  0.54172142     0.14600
H1220       H  0.26324885  0.09068094  0.64513743     0.14600
C1221       C  0.23692982  0.05138789  0.59427904     0.36300
C1222       C  0.25037031  0.20000516  0.59009775     0.36200
N1223       N  0.23456246  0.02115275  0.59535388    -0.44100
N1224       N  0.25179525  0.23009489  0.58646581    -0.44100
C1225       C  0.23393338  0.11052270  0.43550163    -0.00500
C1226       C  0.26777976  0.12535203  0.43723681    -0.12300
C1227       C  0.28282804  0.14175180  0.40807330     0.01800
C1228       C  0.26460304  0.14225896  0.37580232    -0.00600
C1229       C  0.23110955  0.12697878  0.37365545    -0.12300
C1230       C  0.21524296  0.11209143  0.40341496     0.01700
H1231       H  0.28241225  0.12476839  0.46172915     0.14600
H1232       H  0.21630581  0.12896345  0.34932534     0.14600
C1233       C  0.17856228  0.10270023  0.40126159     0.36300
C1234       C  0.31669164  0.15851420  0.41214655     0.36200
N1235       N  0.14891265  0.09610831  0.39943974    -0.44100
N1236       N  0.34365025  0.17219205  0.41555270    -0.44100
C1237       C  0.41831879  0.22286443  0.62061203    -0.00500
C1238       C  0.45340287  0.23450339  0.62412451    -0.12300
C1239       C  0.47721702  0.23337581  0.59565455     0.01800
C1240       C  0.46612679  0.22033185  0.56264141    -0.00600
C1241       C  0.43187506  0.20634919  0.56013136    -0.12300
C1242       C  0.40822233  0.20740889  0.58836647     0.01700
H1243       H  0.46200105  0.24563931  0.64892603     0.14600
H1244       H  0.42305508  0.19499569  0.53549172     0.14600
C1245       C  0.37410481  0.19145767  0.58346322     0.36300
C1246       C  0.51214344  0.24725038  0.60077556     0.36200
N1247       N  0.34700242  0.17834643  0.57909456    -0.44100
N1248       N  0.54016153  0.25832126  0.60503705    -0.44100
C1249       C  0.46043406  0.23662607  0.43591525    -0.00500
C1250       C  0.47229666  0.22610479  0.40265679    -0.12300
C1251       C  0.44973401  0.22616060  0.37325982     0.01800
C1252       C  0.41376822  0.23641083  0.37678703    -0.00600
C1253       C  0.40245316  0.24800474  0.40991706    -0.12300
C1254       C  0.42519481  0.24880473  0.43893000     0.01700
H1255       H  0.49918185  0.21708342  0.39967508     0.14600
H1256       H  0.37564627  0.25711639  0.41325974     0.14600
C1257       C  0.41154803  0.26365614  0.47113342     0.36300
C1258       C  0.46479621  0.21540920  0.34009031     0.36200
N1259       N  0.40050032  0.27572458  0.49678553    -0.44100
N1260       N  0.47723065  0.20710129  0.31358347    -0.44100
C1261       C  0.43643354  0.62974744  0.25243925    -0.00500
C1262       C  0.43145455  0.59372454  0.24493436    -0.12300
C1263       C  0.45986491  0.56978413  0.24410864     0.01800
C1264       C  0.49443181  0.58148179  0.25126158    -0.00600
C1265       C  0.49912529  0.61747075  0.25860805    -0.12300
C1266       C  0.47127554  0.64132144  0.25889632     0.01700
H1267       H  0.40527904  0.58411933  0.23913085     0.14600
H1268       H  0.52513976  0.62769944  0.26415710     0.14600
C1269       C  0.48019283  0.67758499  0.26564026     0.36300
C1270       C  0.45275048  0.53382117  0.23476333     0.36200
N1271       N  0.48765494  0.70656323  0.27078974    -0.44100
N1272       N  0.44700090  0.50501951  0.22707902    -0.44100
C1273       C  0.49415079  0.80202153  0.12107490    -0.00500
C1274       C  0.49646298  0.76887905  0.13735270    -0.12300
C1275       C  0.46743857  0.75390921  0.15403532     0.01800
C1276       C  0.43553389  0.77238659  0.15516437    -0.00600
C1277       C  0.43245315  0.80448630  0.13759884    -0.12300
C1278       C  0.46116654  0.81921492  0.12007776     0.01700
H1279       H  0.52108587  0.75453715  0.13725252     0.14600
H1280       H  0.40785799  0.81879970  0.13882241     0.14600
C1281       C  0.45585019  0.85236910  0.10255692     0.36300
C1282       C  0.47060286  0.71920722  0.16893715     0.36200
N1283       N  0.45099540  0.87877640  0.08837569    -0.44100
N1284       N  0.47283222  0.69119538  0.18040948    -0.44100
C1285       C  0.45868765  0.73553880  0.44000318    -0.00500
C1286       C  0.46161280  0.70963980  0.41387385    -0.12300
C1287       C  0.43736342  0.70797341  0.38589919     0.01800
C1288       C  0.41022425  0.73310291  0.38309677    -0.00600
C1289       C  0.40729969  0.75900588  0.40905634    -0.12300
C1290       C  0.43094714  0.76027420  0.43740189     0.01700
H1291       H  0.48162377  0.68954033  0.41637052     0.14600
H1292       H  0.38654068  0.77842721  0.40709130     0.14600
C1293       C  0.42594189  0.78724297  0.46361332     0.36300
C1294       C  0.43879478  0.67859855  0.36197997     0.36200
N1295       N  0.42157171  0.80883996  0.48455054    -0.44100
N1296       N  0.43911875  0.65483987  0.34304692    -0.44100
C1297       C  0.24410018  0.86072574  0.43919736    -0.00500
C1298       C  0.22268105  0.85790914  0.40938472    -0.12300
C1299       C  0.23604761  0.84446376  0.37811324     0.01800
C1300       C  0.27180271  0.83519477  0.37607449    -0.00600
C1301       C  0.29373603  0.83943602  0.40535580    -0.12300
C1302       C  0.28016456  0.85209519  0.43700511     0.01700
H1303       H  0.19487328  0.86402544  0.41120497     0.14600
H1304       H  0.32105940  0.83134521  0.40388724     0.14600
C1305       C  0.30367864  0.85574195  0.46665911     0.36300
C1306       C  0.21166169  0.83635193  0.35014075     0.36200
N1307       N  0.32260881  0.85860576  0.49033879    -0.44100
N1308       N  0.19174989  0.82925343  0.32825554    -0.44100
C1309       C  0.08995579  0.49016868  0.11124897    -0.00500
C1310       C  0.07369316  0.52229689  0.10287578    -0.12300
C1311       C  0.03736724  0.52405385  0.09719617     0.01800
C1312       C  0.01701476  0.49324492  0.10049245    -0.00600
C1313       C  0.03457521  0.46085728  0.09919708    -0.12300
C1314       C  0.07065529  0.45888830  0.10554222     0.01700
H1315       H  0.08862316  0.54650047  0.10379116     0.14600
H1316       H  0.01961978  0.43665677  0.09835348     0.14600
C1317       C  0.08553389  0.42432046  0.10993908     0.36300
C1318       C  0.02181879  0.55783890  0.08998743     0.36200
N1319       N  0.09694921  0.39645460  0.11380194    -0.44100
N1320       N  0.00990645  0.58506172  0.08374958    -0.44100
C1321       C  0.17690625  0.55620072  0.18060751    -0.00500
C1322       C  0.19068080  0.55482449  0.21489327    -0.12300
C1323       C  0.20611691  0.58415113  0.23025550     0.01800
C1324       C  0.20725548  0.61592580  0.21157546    -0.00600
C1325       C  0.19149580  0.61827054  0.17829461    -0.12300
C1326       C  0.17659150  0.58859168  0.16246841     0.01700
H1327       H  0.19032072  0.53040785  0.22951185     0.14600
H1328       H  0.19295203  0.64269033  0.16371185     0.14600
C1329       C  0.16388027  0.59168310  0.12680329     0.36300
C1330       C  0.22172839  0.58073491  0.26476795     0.36200
N1331       N  0.15393989  0.59445691  0.09815814    -0.44100
N1332       N  0.23449001  0.57805310  0.29227882    -0.44100
C1333       C  0.18349779  0.42867096  0.17671059    -0.00500
C1334       C  0.16264751  0.40312130  0.19325534    -0.12300
C1335       C  0.17797513  0.37319136  0.20849152     0.01800
C1336       C  0.21479624  0.36828636  0.20650764    -0.00600
C1337       C  0.23520688  0.39380247  0.18911124    -0.12300
C1338       C  0.22007924  0.42379203  0.17472505     0.01700
H1339       H  0.13449434  0.40718038  0.19534841     0.14600
H1340       H  0.26340192  0.39038063  0.18647040     0.14600
C1341       C  0.24275956  0.44888794  0.15749735     0.36300
C1342       C  0.15552823  0.34914974  0.22731815     0.36200
N1343       N  0.26103835  0.46893721  0.14380949    -0.44100
N1344       N  0.13729110  0.33017902  0.24252803    -0.44100
C1345       C  0.31428880  0.55017152  0.40546682    -0.00500
C1346       C  0.32692755  0.54747319  0.37070330    -0.12300
C1347       C  0.32551690  0.57539743  0.34696843     0.01800
C1348       C  0.31126369  0.60807824  0.35748807    -0.00600
C1349       C  0.29966288  0.61140704  0.39265136    -0.12300
C1350       C  0.30089758  0.58298239  0.41644730     0.01700
H1351       H  0.33781877  0.52295616  0.36141375     0.14600
H1352       H  0.28879061  0.63614617  0.40153359     0.14600
C1353       C  0.28679612  0.58802834  0.45126785     0.36300
C1354       C  0.33931192  0.56908920  0.31209031     0.36200
N1355       N  0.27525962  0.59225197  0.47910492    -0.44100
N1356       N  0.35026994  0.56360617  0.28423012    -0.44100
C1357       C  0.31790202  0.42276699  0.40426173    -0.00500
C1358       C  0.29650100  0.39400782  0.41251093    -0.12300
C1359       C  0.29320725  0.36542780  0.38929554     0.01800
C1360       C  0.31138758  0.36532831  0.35655550    -0.00600
C1361       C  0.33355177  0.39369560  0.34893743    -0.12300
C1362       C  0.33740229  0.42178255  0.37244551     0.01700
H1363       H  0.28130102  0.39436471  0.43664458     0.14600
H1364       H  0.34871616  0.39358934  0.32477419     0.14600
C1365       C  0.36287077  0.44847577  0.36368523     0.36300
C1366       C  0.27004280  0.33729146  0.39969234     0.36200
N1367       N  0.38368583  0.46939715  0.35645099    -0.44100
N1368       N  0.25151692  0.31496818  0.40871907    -0.44100
C1369       C  0.18154477  0.28652568  0.34183276    -0.00500
C1370       C  0.18443788  0.32148097  0.35289067    -0.12300
C1371       C  0.15508665  0.33946969  0.36582202     0.01800
C1372       C  0.12233883  0.32217069  0.36787024    -0.00600
C1373       C  0.11968017  0.28710594  0.35693934    -0.12300
C1374       C  0.14886803  0.26931615  0.34377734     0.01700
H1375       H  0.20915534  0.33528605  0.34959525     0.14600
H1376       H  0.09470812  0.27348099  0.35874153     0.14600
C1377       C  0.14462856  0.23359331  0.33177132     0.36300
C1378       C  0.15867690  0.37616564  0.37446200     0.36200
N1379       N  0.14138235  0.20505052  0.32194677    -0.44100
N1380       N  0.16148138  0.40561993  0.38124062    -0.44100
C1381       C  0.93596827  0.29499127  0.34411460    -0.00500
C1382       C  0.95693683  0.31696146  0.32298923    -0.12300
C1383       C  0.98595920  0.33453586  0.33659164     0.01800
C1384       C  0.99477354  0.33052586  0.37220107    -0.00600
C1385       C  0.97240730  0.31119348  0.39433109    -0.12300
C1386       C  0.94289998  0.29356487  0.38067801     0.01700
H1387       H  0.95084459  0.32029892  0.29530147     0.14600
H1388       H  0.97893552  0.30849654  0.42198236     0.14600
C1389       C  0.92147182  0.27356080  0.40466681     0.36300
C1390       C  0.00606733  0.35685513  0.31342481     0.36200
N1391       N  0.90475001  0.25814666  0.42483500    -0.44100
N1392       N  0.02180740  0.37489909  0.29471031    -0.44100
C1393       C  0.17596564  0.13379256  0.24185897    -0.00500
C1394       C  0.18168036  0.09781476  0.24942339    -0.12300
C1395       C  0.15410110  0.07315666  0.24898847     0.01800
C1396       C  0.11953966  0.08421333  0.24141574    -0.00600
C1397       C  0.11423915  0.11968351  0.23219433    -0.12300
C1398       C  0.14163222  0.14418118  0.23221714     0.01700
H1399       H  0.20781690  0.08869635  0.25619749     0.14600
H1400       H  0.08815036  0.12874690  0.22510118     0.14600
C1401       C  0.13321052  0.17968120  0.22205010     0.36300
C1402       C  0.16202734  0.03701252  0.25704107     0.36200
N1403       N  0.12626029  0.20808164  0.21390066    -0.44100
N1404       N  0.16834342  0.00796084  0.26317890    -0.44100
C1405       C  0.94169989  0.13515617  0.24943758    -0.00500
C1406       C  0.96745063  0.13726983  0.27571563    -0.12300
C1407       C  0.99312542  0.11099009  0.27924591     0.01800
C1408       C  0.99370440  0.08186342  0.25599297    -0.00600
C1409       C  0.96727778  0.07919445  0.23042947    -0.12300
C1410       C  0.94149723  0.10545357  0.22698608     0.01700
H1411       H  0.96718874  0.15920312  0.29388207     0.14600
H1412       H  0.96797507  0.05769323  0.21176913     0.14600
C1413       C  0.91624630  0.10242052  0.19876754     0.36300
C1414       C  0.01887147  0.11447436  0.30701033     0.36200
N1415       N  0.89612904  0.10021527  0.17602741    -0.44100
N1416       N  0.03956729  0.11707412  0.32919184    -0.44100
C1417       C  0.99039980  0.67864501  0.38513012    -0.00500
C1418       C  0.98966483  0.71256759  0.37051735    -0.12300
C1419       C  0.96015167  0.72491429  0.35283369     0.01800
C1420       C  0.93021786  0.70357424  0.35018628    -0.00600
C1421       C  0.92966448  0.67068412  0.36656147    -0.12300
C1422       C  0.95955654  0.65784237  0.38379263     0.01700
H1423       H  0.01259757  0.72940509  0.37201921     0.14600
H1424       H  0.90646602  0.65426470  0.36423504     0.14600
C1425       C  0.95812354  0.62263499  0.39765315     0.36300
C1426       C  0.96127693  0.75949014  0.33733637     0.36200
N1427       N  0.95653540  0.59433044  0.40850504    -0.44100
N1428       N  0.96215772  0.78720678  0.32500662    -0.44100
C1429       C  0.11759701  0.68900762  0.38554822    -0.00500
C1430       C  0.11378270  0.70427462  0.35218092    -0.12300
C1431       C  0.14245908  0.71735593  0.33383982     0.01800
C1432       C  0.17672183  0.71406354  0.34825044    -0.00600
C1433       C  0.18022417  0.70170380  0.38295850    -0.12300
C1434       C  0.15088997  0.68994708  0.40193300     0.01700
H1435       H  0.08820263  0.70533643  0.33957964     0.14600
H1436       H  0.20595090  0.70065450  0.39521917     0.14600
C1437       C  0.15551861  0.68129330  0.43854084     0.36300
C1438       C  0.13521512  0.73362792  0.30020573     0.36200
N1439       N  0.15969569  0.67542409  0.46810067    -0.44100
N1440       N  0.12906352  0.74655869  0.27335242    -0.44100
C1441       C  0.99740893  0.88898219  0.24277081    -0.00500
C1442       C  0.96346587  0.90335236  0.23974035    -0.12300
C1443       C  0.93304543  0.88207110  0.24102248     0.01800
C1444       C  0.93588638  0.84510000  0.24562712    -0.00600
C1445       C  0.96980457  0.83093320  0.24860491    -0.12300
C1446       C  0.00002496  0.85195700  0.24755978     0.01700
H1447       H  0.96056953  0.93136938  0.23586576     0.14600
H1448       H  0.97298100  0.80290941  0.25224286     0.14600
C1449       C  0.03313862  0.83399681  0.25253731     0.36300
C1450       C  0.89948248  0.89918842  0.23658452     0.36200
N1451       N  0.05947444  0.81931519  0.25658128    -0.44100
N1452       N  0.87266074  0.91311042  0.23310902    -0.44100
C1453       C  0.18377865  0.84864660  0.24032079    -0.00500
C1454       C  0.15547809  0.83996754  0.21822450    -0.12300
C1455       C  0.12702529  0.86290181  0.21334866     0.01800
C1456       C  0.12523812  0.89502578  0.23209087    -0.00600
C1457       C  0.15431398  0.90476080  0.25266395    -0.12300
C1458       C  0.18357250  0.88231742  0.25650087     0.01700
H1459       H  0.15573380  0.81520755  0.20417487     0.14600
H1460       H  0.15361854  0.92933808  0.26699246     0.14600
C1461       C  0.21224432  0.89429023  0.27831011     0.36300
C1462       C  0.10034279  0.85299308  0.18815238     0.36200
N1463       N  0.23515985  0.90416775  0.29573844    -0.44100
N1464       N  0.07915372  0.84500302  0.16780688    -0.44100
C1465       C  0.05435115  0.59338311  0.53807196    -0.00500
C1466       C  0.08729990  0.59191786  0.52125049    -0.12300
C1467       C  0.08982572  0.59737591  0.48502277     0.01800
C1468       C  0.05890104  0.60430487  0.46569206    -0.00600
C1469       C  0.02646734  0.59522264  0.48095623    -0.12300
C1470       C  0.02388321  0.58984693  0.51713959     0.01700
H1471       H  0.11131780  0.59086526  0.53660489     0.14600
H1472       H  0.00244595  0.59664179  0.46569831     0.14600
C1473       C  0.98936541  0.58425746  0.53190746     0.36300
C1474       C  0.12431714  0.59761843  0.46921937     0.36200
N1475       N  0.96143368  0.57974405  0.54308370    -0.44100
N1476       N  0.15217295  0.59713362  0.45698405    -0.44100
C1477       C  0.11719388  0.64903815  0.63462055    -0.00500
C1478       C  0.12089948  0.64472730  0.67077219    -0.12300
C1479       C  0.15025677  0.65770500  0.68828283     0.01800
C1480       C  0.17671674  0.67616061  0.66934765    -0.00600
C1481       C  0.17353725  0.67919609  0.63268344    -0.12300
C1482       C  0.14398597  0.66577855  0.61521156     0.01700
H1483       H  0.10041523  0.63140203  0.68550392     0.14600
H1484       H  0.19347330  0.69310946  0.61782510     0.14600
C1485       C  0.14075053  0.67134864  0.57781118     0.36300
C1486       C  0.15176249  0.65132375  0.72570576     0.36200
N1487       N  0.13808223  0.67587092  0.54784048    -0.44100
N1488       N  0.15164828  0.64588679  0.75563727    -0.44100
C1489       C  0.98988684  0.66034570  0.62735007    -0.00500
C1490       C  0.99040867  0.69677459  0.63271729    -0.12300
C1491       C  0.96093876  0.71424645  0.64595964     0.01800
C1492       C  0.93045191  0.69513114  0.65426712    -0.00600
C1493       C  0.92937377  0.65891434  0.64767158    -0.12300
C1494       C  0.95884823  0.64139131  0.63428871     0.01700
H1495       H  0.01402140  0.71158244  0.62675536     0.14600
H1496       H  0.90613100  0.64401311  0.65480311     0.14600
C1497       C  0.95759567  0.60373284  0.63058906     0.36300
C1498       C  0.96235896  0.75178906  0.65028327     0.36200
N1499       N  0.95683594  0.57352641  0.62779242    -0.44100
N1500       N  0.96355372  0.78196816  0.65300361    -0.44100
C1501       C  0.11749004  0.88345522  0.75582066    -0.00500
C1502       C  0.11132722  0.84690991  0.75835429    -0.12300
C1503       C  0.13872204  0.82215513  0.75893144     0.01800
C1504       C  0.17421565  0.83322603  0.75762620    -0.00600
C1505       C  0.18052917  0.86977396  0.75543950    -0.12300
C1506       C  0.15294985  0.89457523  0.75420963     0.01700
H1507       H  0.08461721  0.83706351  0.75947385     0.14600
H1508       H  0.20734960  0.87932236  0.75422648     0.14600
C1509       C  0.16223400  0.93100759  0.75019971     0.36300
C1510       C  0.12906430  0.78553256  0.75985447     0.36200
N1511       N  0.17012963  0.96010360  0.74679262    -0.44100
N1512       N  0.12121687  0.75621427  0.76042912    -0.44100
C1513       C  0.98995172  0.89188279  0.74595884    -0.00500
C1514       C  0.96102272  0.90045765  0.76735446    -0.12300
C1515       C  0.93155378  0.87800450  0.76951301     0.01800
C1516       C  0.93052580  0.84660036  0.74963795    -0.00600
C1517       C  0.95888844  0.83882982  0.72754458    -0.12300
C1518       C  0.98807057  0.86105532  0.72521051     0.01700
H1519       H  0.96230118  0.92355387  0.78394324     0.14600
H1520       H  0.95833007  0.81497749  0.71216167     0.14600
C1521       C  0.01585237  0.85140655  0.70115064     0.36300
C1522       C  0.90431600  0.88597832  0.79471145     0.36200
N1523       N  0.03811325  0.84364706  0.68191890    -0.44100
N1524       N  0.88264832  0.89196436  0.81521746    -0.44100
C1525       C  0.06295209  0.37537818  0.53996593    -0.00500
C1526       C  0.09554179  0.37890993  0.52298427    -0.12300
C1527       C  0.09734962  0.38106420  0.48643737     0.01800
C1528       C  0.06574762  0.38162142  0.46663807    -0.00600
C1529       C  0.03399876  0.38779782  0.48458879    -0.12300
C1530       C  0.03222825  0.38443289  0.52111510     0.01700
H1531       H  0.11975822  0.37507248  0.53754094     0.14600
H1532       H  0.00973254  0.39129901  0.47000937     0.14600
C1533       C  0.99813936  0.38723429  0.53761631     0.36300
C1534       C  0.13187003  0.37838659  0.47083022     0.36200
N1535       N  0.97065762  0.38947999  0.55048826    -0.44100
N1536       N  0.15991907  0.37578752  0.45933069    -0.44100
C1537       C  0.12519654  0.29605095  0.61956909    -0.00500
C1538       C  0.12450526  0.26133787  0.63212497    -0.12300
C1539       C  0.15480458  0.24570161  0.64583501     0.01800
C1540       C  0.18638465  0.26491388  0.64712478    -0.00600
C1541       C  0.18786755  0.29844325  0.63240877    -0.12300
C1542       C  0.15765890  0.31431228  0.61894780     0.01700
H1543       H  0.10016638  0.24652533  0.63179422     0.14600
H1544       H  0.21215523  0.31333648  0.63387299     0.14600
C1545       C  0.16058486  0.35029354  0.60750727     0.36300
C1546       C  0.15305403  0.20999566  0.65845609     0.36200
N1547       N  0.16309884  0.37917568  0.59853388    -0.44100
N1548       N  0.15185430  0.18128859  0.66825767    -0.44100
C1549       C  0.99636574  0.30130943  0.62093734    -0.00500
C1550       C  0.97205537  0.32492188  0.63521296    -0.12300
C1551       C  0.94094332  0.31270850  0.65020902     0.01800
C1552       C  0.93314519  0.27663391  0.64909454    -0.00600
C1553       C  0.95670711  0.25310930  0.63361127    -0.12300
C1554       C  0.98854103  0.26514628  0.61988122     0.01700
H1555       H  0.97832742  0.35264689  0.63644753     0.14600
H1556       H  0.95099564  0.22523595  0.63384310     0.14600
C1557       C  0.01292385  0.23996058  0.60539437     0.36300
C1558       C  0.91878138  0.33708683  0.66911351     0.36200
N1559       N  0.03263340  0.21985213  0.59395592    -0.44100
N1560       N  0.90122488  0.35634535  0.68476429    -0.44100
C1561       C  0.12534848  0.07653718  0.75457340    -0.00500
C1562       C  0.12475011  0.10687447  0.77567451    -0.12300
C1563       C  0.15216174  0.13138071  0.77494021     0.01800
C1564       C  0.18121499  0.12604445  0.75251363    -0.00600
C1565       C  0.18243982  0.09505866  0.73223127    -0.12300
C1566       C  0.15480182  0.07054511  0.73290878     0.01700
H1567       H  0.10224384  0.11181763  0.79249361     0.14600
H1568       H  0.20462278  0.09044857  0.71491295     0.14600
C1569       C  0.15613939  0.04102007  0.70922049     0.36300
C1570       C  0.15010911  0.16112529  0.79832977     0.36200
N1571       N  0.15720388  0.01754690  0.68995691    -0.44100
N1572       N  0.14831784  0.18478016  0.81729395    -0.44100
C1573       C  0.94197414  0.13082391  0.74316831    -0.00500
C1574       C  0.93717641  0.09624349  0.75552810    -0.12300
C1575       C  0.96486845  0.07172766  0.75641262     0.01800
C1576       C  0.99855157  0.08121636  0.74410813    -0.00600
C1577       C  0.00309164  0.11554401  0.73084675    -0.12300
C1578       C  0.97563668  0.14020265  0.73053942     0.01700
H1579       H  0.91177361  0.08856083  0.76568185     0.14600
H1580       H  0.02859430  0.12355359  0.72093700     0.14600
C1581       C  0.98309775  0.17468234  0.71670981     0.36300
C1582       C  0.95837099  0.03794101  0.77218618     0.36200
N1583       N  0.98977574  0.20216409  0.70566267    -0.44100
N1584       N  0.95321484  0.01096083  0.78511654    -0.44100
C1585       C  0.43526869  0.04982507  0.31408350    -0.00500
C1586       C  0.40302843  0.04550306  0.29662305    -0.12300
C1587       C  0.38556225  0.07347539  0.28128036     0.01800
C1588       C  0.39928554  0.10783525  0.28475296    -0.00600
C1589       C  0.43177064  0.11241586  0.30185300    -0.12300
C1590       C  0.44996808  0.08382090  0.31627838     0.01700
H1591       H  0.39103270  0.01978108  0.29464439     0.14600
H1592       H  0.44274132  0.13850548  0.30462926     0.14600
C1593       C  0.48360781  0.09050258  0.33247928     0.36300
C1594       C  0.35383245  0.06519666  0.26194458     0.36200
N1595       N  0.51054914  0.09666334  0.34521955    -0.44100
N1596       N  0.32852598  0.05763106  0.24681401    -0.44100
C1597       C  0.41209889  0.86077903  0.28219529    -0.00500
C1598       C  0.40674822  0.89223906  0.26411944    -0.12300
C1599       C  0.42313238  0.92305783  0.27490994     0.01800
C1600       C  0.44466446  0.92300101  0.30547747    -0.00600
C1601       C  0.45226559  0.89075936  0.32170629    -0.12300
C1602       C  0.43657249  0.85965419  0.31005863     0.01700
H1603       H  0.38892478  0.89288074  0.24180503     0.14600
H1604       H  0.46932972  0.88990816  0.34445712     0.14600
C1605       C  0.44467845  0.82746913  0.32833991     0.36300
C1606       C  0.41689102  0.95393723  0.25376023     0.36200
N1607       N  0.45158610  0.80166501  0.34277554    -0.44100
N1608       N  0.41169846  0.97835955  0.23645001    -0.44100
C1609       C  0.31172444  0.04973621  0.09708093    -0.00500
C1610       C  0.29381185  0.08021795  0.08658526    -0.12300
C1611       C  0.29040986  0.10916841  0.10949135     0.01800
C1612       C  0.30523861  0.10817274  0.14374281    -0.00600
C1613       C  0.32394086  0.07817950  0.15376947    -0.12300
C1614       C  0.32746443  0.04938239  0.13107915     0.01700
H1615       H  0.28120984  0.08093945  0.06100901     0.14600
H1616       H  0.33659699  0.07750345  0.17929618     0.14600
C1617       C  0.34802187  0.01999497  0.14353504     0.36300
C1618       C  0.27017186  0.13900379  0.09780309     0.36200
N1619       N  0.36435801  0.99646073  0.15366979    -0.44100
N1620       N  0.25394842  0.16302187  0.08870019    -0.44100
C1621       C  0.30356388  0.92270787  0.09679645    -0.00500
C1622       C  0.32176580  0.89241748  0.08650528    -0.12300
C1623       C  0.32446252  0.86323634  0.10906229     0.01800
C1624       C  0.30878163  0.86400143  0.14303362    -0.00600
C1625       C  0.28961029  0.89395658  0.15262958    -0.12300
C1626       C  0.28654338  0.92276751  0.13001833     0.01700
H1627       H  0.33503001  0.89196820  0.06125962     0.14600
H1628       H  0.27638114  0.89478965  0.17789171     0.14600
C1629       C  0.26500292  0.95180431  0.14158189     0.36300
C1630       C  0.34444863  0.83353259  0.09669601     0.36200
N1631       N  0.24777667  0.97504981  0.15086398    -0.44100
N1632       N  0.36036166  0.80988338  0.08619093    -0.44100
C1633       C  0.68022634  0.04375786  0.67602613    -0.00500
C1634       C  0.71685113  0.04294552  0.67804557    -0.12300
C1635       C  0.73583565  0.07195935  0.68959960     0.01800
C1636       C  0.71787622  0.10293388  0.70047406    -0.00600
C1637       C  0.68098017  0.10393783  0.69734719    -0.12300
C1638       C  0.66212239  0.07469300  0.68520514     0.01700
H1639       H  0.73080616  0.01925675  0.67054866     0.14600
H1640       H  0.66667768  0.12728094  0.70509823     0.14600
C1641       C  0.62420955  0.07633211  0.68448211     0.36300
C1642       C  0.77373469  0.06856349  0.68942041     0.36200
N1643       N  0.59380466  0.07751445  0.68401181    -0.44100
N1644       N  0.80404521  0.06576217  0.68931911    -0.44100
C1645       C  0.66689973  0.91741944  0.69264065    -0.00500
C1646       C  0.66634279  0.88621196  0.67320328    -0.12300
C1647       C  0.68263799  0.85594677  0.68597649     0.01800
C1648       C  0.69965973  0.85649074  0.71895978    -0.00600
C1649       C  0.69768683  0.88680690  0.73969880    -0.12300
C1650       C  0.68101457  0.91702631  0.72708463     0.01700
H1651       H  0.65518827  0.88600647  0.64692937     0.14600
H1652       H  0.71006687  0.88715225  0.76541775     0.14600
C1653       C  0.67853058  0.94703560  0.75012161     0.36300
C1654       C  0.68433492  0.82605285  0.66297086     0.36200
N1655       N  0.67628849  0.97098560  0.76868477    -0.44100
N1656       N  0.68532446  0.80281524  0.64351811    -0.44100
C1657       C  0.81362687  0.04893727  0.90200840    -0.00500
C1658       C  0.82823369  0.04423417  0.86816596    -0.12300
C1659       C  0.82751146  0.07075050  0.84262142     0.01800
C1660       C  0.81258174  0.10370579  0.85061723    -0.00600
C1661       C  0.79854225  0.10866713  0.88475581    -0.12300
C1662       C  0.79881246  0.08181886  0.91016212     0.01700
H1663       H  0.83971359  0.01915349  0.86115427     0.14600
H1664       H  0.78646289  0.13349733  0.89159616     0.14600
C1665       C  0.78181102  0.08815660  0.94347719     0.36300
C1666       C  0.84184220  0.06289831  0.80834407     0.36200
N1667       N  0.76798924  0.09321327  0.97011009    -0.44100
N1668       N  0.85280910  0.05656765  0.78067633    -0.44100
C1669       C  0.80021244  0.92295988  0.90590217    -0.00500
C1670       C  0.82044737  0.89353884  0.91489914    -0.12300
C1671       C  0.82276066  0.86449012  0.89214382     0.01800
C1672       C  0.80432046  0.86442738  0.85970681    -0.00600
C1673       C  0.78357377  0.89352257  0.85113635    -0.12300
C1674       C  0.78112900  0.92237623  0.87377917     0.01700
H1675       H  0.83583919  0.89392070  0.93891867     0.14600
H1676       H  0.76879808  0.89357286  0.82670606     0.14600
C1677       C  0.75821861  0.95078113  0.86335597     0.36300
C1678       C  0.84605753  0.83616627  0.90172790     0.36200
N1679       N  0.73969309  0.97322943  0.85461465    -0.44100
N1680       N  0.86492108  0.81363965  0.90947301    -0.44100
C1681       C  0.38041376  0.36041120  0.06218726    -0.00500
C1682       C  0.40268856  0.34659361  0.08801572    -0.12300
C1683       C  0.38872912  0.33218637  0.11874750     0.01800
C1684       C  0.35208648  0.33256751  0.12422367    -0.00600
C1685       C  0.32989323  0.34790506  0.09925650    -0.12300
C1686       C  0.34376267  0.36167169  0.06814150     0.01700
H1687       H  0.43081776  0.34553863  0.08340282     0.14600
H1688       H  0.30169171  0.34796211  0.10351916     0.14600
C1689       C  0.31991349  0.37677283  0.04273188     0.36300
C1690       C  0.41219851  0.31531558  0.14339168     0.36200
N1691       N  0.30073611  0.38884841  0.02242781    -0.44100
N1692       N  0.43087684  0.30163497  0.16311728    -0.44100
C1693       C  0.38039116  0.35745370  0.93402853    -0.00500
C1694       C  0.34457553  0.34829412  0.93393641    -0.12300
C1695       C  0.32897800  0.33387399  0.90407000     0.01800
C1696       C  0.34912911  0.32932770  0.87346121    -0.00600
C1697       C  0.38448737  0.33957334  0.87290206    -0.12300
C1698       C  0.40045766  0.35310501  0.90307486     0.01700
H1699       H  0.32884725  0.35175293  0.95746810     0.14600
H1700       H  0.40021384  0.33477758  0.84956608     0.14600
C1701       C  0.43794576  0.35913021  0.90236416     0.36300
C1702       C  0.29257487  0.32306675  0.90554627     0.36200
N1703       N  0.46804163  0.36361042  0.90175768    -0.44100
N1704       N  0.26348671  0.31419998  0.90655922    -0.44100
C1705       C  0.15308977  0.24391171  0.06094792    -0.00500
C1706       C  0.18787779  0.25638700  0.05820166    -0.12300
C1707       C  0.21099342  0.25596632  0.08681028     0.01800
C1708       C  0.20001152  0.24229411  0.11942289    -0.00600
C1709       C  0.16464192  0.23161246  0.12298642    -0.12300
C1710       C  0.14118257  0.23239963  0.09426028     0.01700
H1711       H  0.19736755  0.26655501  0.03331896     0.14600
H1712       H  0.15545791  0.22182404  0.14810153     0.14600
C1713       C  0.10563991  0.22020152  0.09963019     0.36300
C1714       C  0.24553331  0.27097561  0.08220423     0.36200
N1715       N  0.07713092  0.21055321  0.10410108    -0.44100
N1716       N  0.27323163  0.28305142  0.07884063    -0.44100
C1717       C  0.20124364  0.23406964  0.87454016    -0.00500
C1718       C  0.21043141  0.21597055  0.90528509    -0.12300
C1719       C  0.18768385  0.21437699  0.93412316     0.01800
C1720       C  0.15496006  0.23217122  0.93340834    -0.00600
C1721       C  0.14499594  0.24933020  0.90230771    -0.12300
C1722       C  0.16752482  0.25021201  0.87292152     0.01700
H1723       H  0.23537505  0.20223104  0.90665449     0.14600
H1724       H  0.11995012  0.26289006  0.90123951     0.14600
C1725       C  0.15522574  0.26822372  0.84183392     0.36300
C1726       C  0.19829394  0.19296700  0.96362253     0.36200
N1727       N  0.14502038  0.28229295  0.81685879    -0.44100
N1728       N  0.20688316  0.17557287  0.98703693    -0.44100
C1729       C  0.75275210  0.64894391  0.12561561    -0.00500
C1730       C  0.73620512  0.67032856  0.10029431    -0.12300
C1731       C  0.71907928  0.65596655  0.07137512     0.01800
C1732       C  0.71784133  0.61938155  0.06730479    -0.00600
C1733       C  0.73218366  0.59768364  0.09350328    -0.12300
C1734       C  0.74965474  0.61213989  0.12261691     0.01700
H1735       H  0.73676266  0.69865872  0.10281317     0.14600
H1736       H  0.73141070  0.56943571  0.09025998     0.14600
C1737       C  0.76544389  0.58865740  0.14785322     0.36300
C1738       C  0.70321703  0.67939815  0.04602724     0.36200
N1739       N  0.77807564  0.56989027  0.16816678    -0.44100
N1740       N  0.69056888  0.69814281  0.02570238    -0.44100
C1741       C  0.73525615  0.61223408  0.94092084    -0.00500
C1742       C  0.76306209  0.63593287  0.94626520    -0.12300
C1743       C  0.78154456  0.65032493  0.91818694     0.01800
C1744       C  0.77330819  0.64020349  0.88334558    -0.00600
C1745       C  0.74720411  0.61482136  0.87794365    -0.12300
C1746       C  0.72776275  0.60121335  0.90610082     0.01700
H1747       H  0.76990464  0.64444387  0.97261512     0.14600
H1748       H  0.73985457  0.60779355  0.85135552     0.14600
C1749       C  0.69872940  0.57840801  0.89757092     0.36300
C1750       C  0.80712035  0.67713528  0.92635830     0.36200
N1751       N  0.67541774  0.56056749  0.88967666    -0.44100
N1752       N  0.82669462  0.69917357  0.93368909    -0.44100
C1753       C  0.91210089  0.74083546  0.12230672    -0.00500
C1754       C  0.94697331  0.75278984  0.12658586    -0.12300
C1755       C  0.97072605  0.75361662  0.09817747     0.01800
C1756       C  0.95983280  0.74190216  0.06459971    -0.00600
C1757       C  0.92517656  0.72927092  0.06086121    -0.12300
C1758       C  0.90159275  0.72852628  0.08894128     0.01700
H1759       H  0.95553150  0.76232562  0.15206904     0.14600
H1760       H  0.91605581  0.71971224  0.03564685     0.14600
C1761       C  0.86709288  0.71387883  0.08267112     0.36300
C1762       C  0.00532471  0.76804942  0.10406772     0.36200
N1763       N  0.83949325  0.70213462  0.07757118    -0.44100
N1764       N  0.03297232  0.77981779  0.10885569    -0.44100
C1765       C  0.96304090  0.73773789  0.93695168    -0.00500
C1766       C  0.96977892  0.76009395  0.90835312    -0.12300
C1767       C  0.94657140  0.76152379  0.87942359     0.01800
C1768       C  0.91597937  0.74031839  0.87887885    -0.00600
C1769       C  0.91034248  0.71695389  0.90659305    -0.12300
C1770       C  0.93329199  0.71536869  0.93528975     0.01700
H1771       H  0.99225230  0.77756521  0.90929819     0.14600
H1772       H  0.88802817  0.69943713  0.90558152     0.14600
C1773       C  0.92556811  0.69010969  0.96253118     0.36300
C1774       C  0.95381390  0.78611612  0.85148151     0.36200
N1775       N  0.91899665  0.66978561  0.98414812    -0.44100
N1776       N  0.95960767  0.80581837  0.82907380    -0.44100
C1777       C  0.51467661  0.97649448  0.60662713    -0.00500
C1778       C  0.53208518  0.00853050  0.60129176    -0.12300
C1779       C  0.56868659  0.01035264  0.60391577     0.01800
C1780       C  0.58767357  0.97941096  0.61169649    -0.00600
C1781       C  0.57095138  0.94702613  0.60575725    -0.12300
C1782       C  0.53438378  0.94540626  0.60251490     0.01700
H1783       H  0.51718768  0.03259124  0.59980929     0.14600
H1784       H  0.58572593  0.92277925  0.60763830     0.14600
C1785       C  0.51787082  0.91153866  0.59857233     0.36300
C1786       C  0.58512967  0.04440874  0.60159599     0.36200
N1787       N  0.50457355  0.88444358  0.59524723    -0.44100
N1788       N  0.59807125  0.07179300  0.59943332    -0.44100
C1789       C  0.43458526  0.04172403  0.68460879    -0.00500
C1790       C  0.41282514  0.03905528  0.71448000    -0.12300
C1791       C  0.39858079  0.06860227  0.73045769     0.01800
C1792       C  0.40576980  0.10201707  0.71655619    -0.00600
C1793       C  0.42931251  0.10533095  0.68847362    -0.12300
C1794       C  0.44382993  0.07566787  0.67238032     0.01700
H1795       H  0.40592596  0.01368618  0.72521773     0.14600
H1796       H  0.43479133  0.13111936  0.67771586     0.14600
C1797       C  0.46673256  0.08170216  0.64278235     0.36300
C1798       C  0.37616799  0.06375324  0.76079524     0.36200
N1799       N  0.48491470  0.08806003  0.61924713    -0.44100
N1800       N  0.35822820  0.05966659  0.78502969    -0.44100
C1801       C  0.43085613  0.91372453  0.68217679    -0.00500
C1802       C  0.42275506  0.88569504  0.65963211    -0.12300
C1803       C  0.40619471  0.85559864  0.67259760     0.01800
C1804       C  0.39962084  0.85249067  0.70889734    -0.00600
C1805       C  0.40873103  0.87973379  0.73164259    -0.12300
C1806       C  0.42377090  0.91047314  0.71865502     0.01700
H1807       H  0.42721338  0.88826573  0.63157484     0.14600
H1808       H  0.40269765  0.87752042  0.75946060     0.14600
C1809       C  0.43075367  0.93827780  0.74349693     0.36300
C1810       C  0.39276969  0.83001960  0.64798522     0.36200
N1811       N  0.43576407  0.96036222  0.76377147    -0.44100
N1812       N  0.38117582  0.80986520  0.62839894    -0.44100
C1813       C  0.30099945  0.04716779  0.90430613    -0.00500
C1814       C  0.31525948  0.07922631  0.91535189    -0.12300
C1815       C  0.31638888  0.10836729  0.89263796     0.01800
C1816       C  0.30299473  0.10583176  0.85766191    -0.00600
C1817       C  0.28728511  0.07422195  0.84739986    -0.12300
C1818       C  0.28591608  0.04534046  0.87009020     0.01700
H1819       H  0.32694513  0.08115373  0.94131157     0.14600
H1820       H  0.27591799  0.07190526  0.82132591     0.14600
C1821       C  0.26850430  0.01419840  0.85717337     0.36300
C1822       C  0.33322614  0.13974689  0.90570163     0.36200
N1823       N  0.25472117  0.98924591  0.84666317    -0.44100
N1824       N  0.34687078  0.16479068  0.91618421    -0.44100
C1825       C  0.31344295  0.92050581  0.90519565    -0.00500
C1826       C  0.32079233  0.92448233  0.86892596    -0.12300
C1827       C  0.31836609  0.89655063  0.84501124     0.01800
C1828       C  0.30967369  0.86255932  0.85697759    -0.00600
C1829       C  0.30385265  0.85808016  0.89349249    -0.12300
C1830       C  0.30516166  0.88647496  0.91734580     0.01700
H1831       H  0.32775780  0.95005634  0.85861007     0.14600
H1832       H  0.29709770  0.83232636  0.90349132     0.14600
C1833       C  0.29604532  0.88001784  0.95360307     0.36300
C1834       C  0.32477638  0.90410405  0.80833004     0.36200
N1835       N  0.28844579  0.87472142  0.98259430    -0.44100
N1836       N  0.32958090  0.91063921  0.77899346    -0.44100
C1837       C  0.59845801  0.99120120  0.38781109    -0.00500
C1838       C  0.58169523  0.95867238  0.39229981    -0.12300
C1839       C  0.54508398  0.95651829  0.39091344     0.01800
C1840       C  0.52547687  0.98733320  0.38434709    -0.00600
C1841       C  0.54177989  0.01978005  0.39095837    -0.12300
C1842       C  0.57841610  0.02182633  0.39346682     0.01700
H1843       H  0.59694276  0.93463481  0.39217195     0.14600
H1844       H  0.52658218  0.04377917  0.39043971     0.14600
C1845       C  0.59463020  0.05559565  0.39906827     0.36300
C1846       C  0.52898418  0.92233518  0.39353850     0.36200
N1847       N  0.60772826  0.08254048  0.40402416    -0.44100
N1848       N  0.51645174  0.89480784  0.39611109    -0.44100
C1849       C  0.68286983  0.05663688  0.31575096    -0.00500
C1850       C  0.70471968  0.07670427  0.33739133    -0.12300
C1851       C  0.72218397  0.10586787  0.32384256     0.01800
C1852       C  0.71766802  0.11514996  0.28824343    -0.00600
C1853       C  0.69424141  0.09628222  0.26701102    -0.12300
C1854       C  0.67673575  0.06699128  0.28065193     0.01700
H1855       H  0.70908677  0.06886852  0.36447123     0.14600
H1856       H  0.69030970  0.10389381  0.23979994     0.14600
C1857       C  0.65216675  0.04811954  0.25867927     0.36300
C1858       C  0.74489077  0.12593332  0.34676030     0.36200
N1859       N  0.63216316  0.03280200  0.24162375    -0.44100
N1860       N  0.76303356  0.14232674  0.36484650    -0.44100
C1861       C  0.67767306  0.92883724  0.30833940    -0.00500
C1862       C  0.67469444  0.89802610  0.32836448    -0.12300
C1863       C  0.68977087  0.86670773  0.31695127     0.01800
C1864       C  0.70743749  0.86563481  0.28447069    -0.00600
C1865       C  0.70842308  0.89560886  0.26324596    -0.12300
C1866       C  0.69361843  0.92710132  0.27470040     0.01700
H1867       H  0.66251532  0.89878262  0.35414413     0.14600
H1868       H  0.72190922  0.89466268  0.23810171     0.14600
C1869       C  0.69573867  0.95687950  0.25133853     0.36300
C1870       C  0.69007051  0.83740507  0.34089922     0.36200
N1871       N  0.69781173  0.98041204  0.23224346    -0.44100
N1872       N  0.69049043  0.81449812  0.36079764    -0.44100
C1873       C  0.80410170  0.05400916  0.09524523    -0.00500
C1874       C  0.79149231  0.05246478  0.13013735    -0.12300
C1875       C  0.79396516  0.08098214  0.15324379     0.01800
C1876       C  0.81062807  0.11223482  0.14249013    -0.00600
C1877       C  0.82193273  0.11467300  0.10719845    -0.12300
C1878       C  0.81831889  0.08629705  0.08353536     0.01700
H1879       H  0.77908425  0.02877699  0.13965219     0.14600
H1880       H  0.83366382  0.13889390  0.09796809     0.14600
C1881       C  0.82921261  0.09139870  0.04756809     0.36300
C1882       C  0.77708213  0.07803133  0.18715160     0.36200
N1883       N  0.83757944  0.09589263  0.01865581    -0.44100
N1884       N  0.76323027  0.07591345  0.21415751    -0.44100
C1885       C  0.80342608  0.86760575  0.14320700    -0.00500
C1886       C  0.78341255  0.89703601  0.15242829    -0.12300
C1887       C  0.77935627  0.92542934  0.12926294     0.01800
C1888       C  0.79702552  0.92589708  0.09632493    -0.00600
C1889       C  0.81576999  0.89570902  0.08635128    -0.12300
C1890       C  0.81864635  0.86659272  0.10910276     0.01700
H1891       H  0.76994711  0.89744765  0.17758366     0.14600
H1892       H  0.82910379  0.89519447  0.06115458     0.14600
C1893       C  0.83824910  0.83644061  0.09709248     0.36300
C1894       C  0.75516027  0.95276511  0.13948283     0.36200
N1895       N  0.85370862  0.81215530  0.08738393    -0.44100
N1896       N  0.73517385  0.97402163  0.14797136    -0.44100
C1897       C  0.67205384  0.45034068  0.99622810    -0.00500
C1898       C  0.66462599  0.46605152  0.02885474    -0.12300
C1899       C  0.66053085  0.50236441  0.03144564     0.01800
C1900       C  0.66395492  0.52305959  0.00079059    -0.00600
C1901       C  0.66159579  0.50633954  0.96802284    -0.12300
C1902       C  0.66640559  0.47024233  0.96523908     0.01700
H1903       H  0.66575286  0.45062355  0.05279156     0.14600
H1904       H  0.66073366  0.52179395  0.94419289     0.14600
C1905       C  0.66968561  0.45598669  0.93016179     0.36300
C1906       C  0.65614972  0.51745096  0.06601723     0.36200
N1907       N  0.67252570  0.44518721  0.90184723    -0.44100
N1908       N  0.65263046  0.52948850  0.09374365    -0.44100
C1909       C  0.74976838  0.36675897  0.05791171    -0.00500
C1910       C  0.73678035  0.37725116  0.09090411    -0.12300
C1911       C  0.75047700  0.36322048  0.12205825     0.01800
C1912       C  0.77804695  0.33854697  0.12053687    -0.00600
C1913       C  0.79270529  0.32997498  0.08791082    -0.12300
C1914       C  0.77897022  0.34348310  0.05678476     0.01700
H1915       H  0.71468691  0.39515783  0.09244965     0.14600
H1916       H  0.81424189  0.31131811  0.08663258     0.14600
C1917       C  0.79524837  0.33170281  0.02451031     0.36300
C1918       C  0.73387225  0.37254966  0.15482036     0.36200
N1919       N  0.80846269  0.32170643  0.99898257    -0.44100
N1920       N  0.72043511  0.38018804  0.18099120    -0.44100
C1921       C  0.73210455  0.35611674  0.93171193    -0.00500
C1922       C  0.74132648  0.37656013  0.90246301    -0.12300
C1923       C  0.75660850  0.36109563  0.87271150     0.01800
C1924       C  0.76257774  0.32442194  0.87218461    -0.00600
C1925       C  0.75172684  0.30420610  0.90121660    -0.12300
C1926       C  0.73670118  0.31958200  0.93062144     0.01700
H1927       H  0.73810804  0.40479741  0.90350321     0.14600
H1928       H  0.75478019  0.27593540  0.90119512     0.14600
C1929       C  0.72609361  0.29709308  0.95935255     0.36300
C1930       C  0.76687815  0.38371183  0.84403745     0.36200
N1931       N  0.71771658  0.27916894  0.98242996    -0.44100
N1932       N  0.77507098  0.40191975  0.82110859    -0.44100
C1933       C  0.96371276  0.24523954  0.05862823    -0.00500
C1934       C  0.97569999  0.23096281  0.09054023    -0.12300
C1935       C  0.95403634  0.23032884  0.12060315     0.01800
C1936       C  0.91964173  0.24468553  0.11934498    -0.00600
C1937       C  0.90835571  0.26034041  0.08790281    -0.12300
C1938       C  0.92981627  0.26081074  0.05789751     0.01700
H1939       H  0.00138781  0.21868308  0.09157103     0.14600
H1940       H  0.88244275  0.27217990  0.08665777     0.14600
C1941       C  0.91618592  0.27763947  0.02668175     0.36300
C1942       C  0.96684160  0.21251063  0.15158518     0.36200
N1943       N  0.90528921  0.29089565  0.00155507    -0.44100
N1944       N  0.97681821  0.19807272  0.17643623    -0.44100
C1945       C  0.96445962  0.22578521  0.93137304    -0.00500
C1946       C  0.93053295  0.21132876  0.93484930    -0.12300
C1947       C  0.90704447  0.20949950  0.90644586     0.01800
C1948       C  0.91668483  0.22322463  0.87323800    -0.00600
C1949       C  0.95169405  0.23499914  0.86904053    -0.12300
C1950       C  0.97544002  0.23640178  0.89749302     0.01700
H1951       H  0.92197785  0.20154949  0.96022940     0.14600
H1952       H  0.96048454  0.24407298  0.84355678     0.14600
C1953       C  0.01019588  0.25031858  0.89125675     0.36300
C1954       C  0.87362945  0.19251444  0.91233561     0.36200
N1955       N  0.03805573  0.26140161  0.88609460    -0.44100
N1956       N  0.84701999  0.17861003  0.91716233    -0.44100
C1957       C  0.45137343  0.51759593  0.00450553    -0.00500
C1958       C  0.45353314  0.50221528  0.97093545    -0.12300
C1959       C  0.45347578  0.46584406  0.96688403     0.01800
C1960       C  0.45161620  0.44432087  0.99712515    -0.00600
C1961       C  0.45899421  0.45966560  0.02989390    -0.12300
C1962       C  0.45833695  0.49605951  0.03400543     0.01700
H1963       H  0.45128313  0.51825043  0.94758923     0.14600
H1964       H  0.46089729  0.44335280  0.05319261     0.14600
C1965       C  0.46216539  0.50949431  0.06921834     0.36300
C1966       C  0.45179515  0.45227039  0.93145986     0.36200
N1967       N  0.46548578  0.51870118  0.09801033    -0.44100
N1968       N  0.45040072  0.44235578  0.90272439    -0.44100
C1969       C  0.38320342  0.60423840  0.07276038    -0.00500
C1970       C  0.34769038  0.61446715  0.07003647    -0.12300
C1971       C  0.33041218  0.63033237  0.09816781     0.01800
C1972       C  0.34855531  0.63561515  0.12981260    -0.00600
C1973       C  0.38298456  0.62302637  0.13371988    -0.12300
C1974       C  0.40062189  0.60764083  0.10536117     0.01700
H1975       H  0.33367389  0.61114235  0.04539820     0.14600
H1976       H  0.39692180  0.62744840  0.15825727     0.14600
C1977       C  0.43731478  0.59916570  0.10972720     0.36300
C1978       C  0.29430371  0.64139551  0.09401737     0.36200
N1979       N  0.46682628  0.59314748  0.11402229    -0.44100
N1980       N  0.26532639  0.65017052  0.09098016    -0.44100
C1981       C  0.38625396  0.61232411  0.94581230    -0.00500
C1982       C  0.35691041  0.63449054  0.94999311    -0.12300
C1983       C  0.33911394  0.64839926  0.92116988     0.01800
C1984       C  0.35020971  0.64002918  0.88671833    -0.00600
C1985       C  0.37899068  0.61748480  0.88218545    -0.12300
C1986       C  0.39731204  0.60395366  0.91120198     0.01700
H1987       H  0.34747798  0.64125215  0.97603329     0.14600
H1988       H  0.38836537  0.61183583  0.85583191     0.14600
C1989       C  0.42814831  0.58309661  0.90414134     0.36300
C1990       C  0.30978255  0.67159668  0.92801575     0.36200
N1991       N  0.45292558  0.56668679  0.89774534    -0.44100
N1992       N  0.28661864  0.69045974  0.93368694    -0.44100
C1993       C  0.15288769  0.74712477  0.06662865    -0.00500
C1994       C  0.18796777  0.75858291  0.06251956    -0.12300
C1995       C  0.21291598  0.75547677  0.08919972     0.01800
C1996       C  0.20299701  0.74206746  0.12231343    -0.00600
C1997       C  0.16764726  0.73142013  0.12704716    -0.12300
C1998       C  0.14284041  0.73332085  0.09956577     0.01700
H1999       H  0.19665623  0.76951800  0.03770385     0.14600
H2000       H  0.15940713  0.72068226  0.15212904     0.14600
C2001       C  0.10814338  0.71924723  0.10557576     0.36300
C2002       C  0.24850811  0.76602023  0.08108627     0.36200
N2003       N  0.08051572  0.70758151  0.11066461    -0.44100
N2004       N  0.27702082  0.77406025  0.07416005    -0.44100
C2005       C  0.20059410  0.74045010  0.88517015    -0.00500
C2006       C  0.20619713  0.76653728  0.91053966    -0.12300
C2007       C  0.18198466  0.77192869  0.93776911     0.01800
C2008       C  0.15140136  0.75082395  0.94013244    -0.00600
C2009       C  0.14515868  0.72555640  0.91427069    -0.12300
C2010       C  0.16929991  0.72012942  0.88700127     0.01700
H2011       H  0.22939122  0.78301999  0.90891916     0.14600
H2012       H  0.12223275  0.70875132  0.91636759     0.14600
C2013       C  0.16168401  0.69238055  0.86229895     0.36300
C2014       C  0.18915483  0.79942007  0.96295550     0.36200
N2015       N  0.15508282  0.67011812  0.84269457    -0.44100
N2016       N  0.19499757  0.82143282  0.98309260    -0.44100
loop_ 
_geom_bond_atom_site_label_1 
_geom_bond_atom_site_label_2 
_geom_bond_distance 
_geom_bond_site_symmetry_2 
_ccdc_geom_bond_type 
C1            N2   1.360       .  A
C1            N6   1.342   1_556  A
C1         C2008   1.477       .  S
N2            C3   1.367   1_556  A
C3            N4   1.375       .  A
C3           C53   1.490       .  S
N4            C5   1.369       .  A
C5            N6   1.348       .  A
C5         C1993   1.498       .  S
C7            N8   1.351       .  A
C7           N12   1.359       .  A
C7         C1969   1.475       .  S
N8            C9   1.351   1_554  A
C9           N10   1.355       .  A
C9         C1981   1.492       .  S
N10          C11   1.364   1_556  A
C11          N12   1.364       .  A
C11        C1957   1.491       .  S
C13          N14   1.364   1_655  A
C13          N18   1.354   1_554  A
C13        C1933   1.498       .  S
N14          C15   1.369   1_554  A
C15          N16   1.369       .  A
C15          C65   1.490       .  S
N16          C17   1.365   1_455  A
C17          N18   1.355       .  A
C17        C1945   1.501       .  S
C19          N20   1.348       .  A
C19          N24   1.351       .  A
C19        C1921   1.463       .  S
N20          C21   1.347   1_556  A
C21          N22   1.359       .  A
C21        C1909   1.486       .  S
N22          C23   1.365   1_554  A
C23          N24   1.358       .  A
C23        C1897   1.483       .  S
C25          N26   1.368       .  A
C25          N30   1.353       .  A
C25        C1888   1.504       .  S
N26          C27   1.373       .  A
C27          N28   1.373   1_565  A
C27          C75   1.505   1_554  S
N28          C29   1.370       .  A
C29          N30   1.356   1_545  A
C29        C1873   1.510       .  S
C31          N32   1.353   1_545  A
C31          N36   1.356       .  A
C31        C1849   1.461       .  S
N32          C33   1.352       .  A
C33          N34   1.355       .  A
C33        C1861   1.479       .  S
N34          C35   1.358       .  A
C35          N36   1.359   1_565  A
C35        C1837   1.485       .  S
C37          N38   1.367       .  A
C37          N42   1.348   1_545  A
C37        C1813   1.497       .  S
N38          C39   1.372   1_545  A
C39          N40   1.377       .  A
C39          C87   1.503   1_556  S
N40          C41   1.370       .  A
C41          N42   1.349       .  A
C41        C1825   1.510       .  S
C43          N44   1.350       .  A
C43          N48   1.356       .  A
C43        C1801   1.477       .  S
N44          C45   1.354   1_565  A
C45          N46   1.356       .  A
C45        C1789   1.488       .  S
N46          C47   1.363   1_545  A
C47          N48   1.361       .  A
C47        C1777   1.487       .  S
C49          N50   1.352       .  A
C49          N54   1.365   1_655  A
C49        C1756   1.497       .  S
N50          C51   1.349   1_554  A
C51          N52   1.364   1_655  A
C51        C1765   1.491       .  S
N52          C53   1.372   1_556  A
C53          N54   1.368       .  A
C55          N56   1.352       .  A
C55          N60   1.353       .  A
C55        C1732   1.467       .  S
N56          C57   1.354   1_554  A
C57          N58   1.354       .  A
C57        C1741   1.488       .  S
N58          C59   1.363   1_556  A
C59          N60   1.359       .  A
C59        C1900   1.484       .  S
C61          N62   1.351       .  A
C61          N66   1.365       .  A
C61        C1720   1.492       .  S
N62          C63   1.353   1_556  A
C63          N64   1.364       .  A
C63        C1705   1.497       .  S
N64          C65   1.369   1_554  A
C65          N66   1.370       .  A
C67          N68   1.354       .  A
C67          N72   1.356       .  A
C67        C1693   1.471       .  S
N68          C69   1.352   1_556  A
C69          N70   1.354       .  A
C69        C1681   1.466       .  S
N70          C71   1.361   1_554  A
C71          N72   1.357       .  A
C71        C1960   1.486       .  S
C73          N74   1.367       .  A
C73          N78   1.347       .  A
C73        C1669   1.490       .  S
N74          C75   1.372       .  A
C75          N76   1.375   1_565  A
N76          C77   1.371       .  A
C77          N78   1.349   1_545  A
C77        C1657   1.499       .  S
C79          N80   1.354   1_545  A
C79          N84   1.356       .  A
C79        C1633   1.471       .  S
N80          C81   1.353       .  A
C81          N82   1.356       .  A
C81        C1645   1.480       .  S
N82          C83   1.361       .  A
C83          N84   1.360   1_565  A
C83        C1780   1.486       .  S
C85          N86   1.371       .  A
C85          N90   1.349   1_545  A
C85        C1609   1.502       .  S
N86          C87   1.377   1_545  A
C87          N88   1.371       .  A
N88          C89   1.366       .  A
C89          N90   1.348       .  A
C89        C1621   1.494       .  S
C91          N92   1.356       .  A
C91          N96   1.345       .  A
C91        C1600   1.486       .  S
N92          C93   1.364       .  A
C93          N94   1.365   1_565  A
C93        C1840   1.486       .  S
N94          C95   1.357       .  A
C95          N96   1.350   1_545  A
C95        C1585   1.482       .  S
C97          N98   1.349       .  A
C97         N102   1.369       .  A
C97        C1576   1.503   1_455  S
N98          C99   1.350       .  A
C99         N100   1.367       .  A
C99        C1561   1.487       .  S
N100        C101   1.371       .  A
C101        N102   1.374       .  A
C101        C111   1.502   1_545  S
C103        N104   1.356       .  A
C103        N108   1.354       .  A
C103       C1549   1.462   1_455  S
N104        C105   1.355       .  A
C105        N106   1.353       .  A
C105       C1537   1.481       .  S
N106        C107   1.357       .  A
C107        N108   1.355       .  A
C107       C1525   1.484       .  S
C109        N110   1.372       .  A
C109        N114   1.353       .  A
C109       C1501   1.517       .  S
N110        C111   1.376       .  A
C111        N112   1.371       .  A
N112        C113   1.364       .  A
C113        N114   1.351       .  A
C113       C1513   1.494   1_455  S
C115        N116   1.354       .  A
C115        N120   1.357       .  A
C115       C1489   1.473   1_455  S
N116        C117   1.354       .  A
C117        N118   1.351       .  A
C117       C1477   1.464       .  S
N118        C119   1.358       .  A
C119        N120   1.361       .  A
C119       C1465   1.483       .  S
C121        N122   1.350       .  A
C121        N126   1.365       .  A
C121       C1456   1.499       .  S
N122        C123   1.352       .  A
C123        N124   1.371       .  A
C123       C1441   1.512   1_455  S
N124        C125   1.375       .  A
C125        N126   1.372       .  A
C125        C135   1.502   1_565  S
C127        N128   1.359       .  A
C127        N132   1.350       .  A
C127       C1429   1.481       .  S
N128        C129   1.365       .  A
C129        N130   1.362       .  A
C129       C1468   1.485       .  S
N130        C131   1.352       .  A
C131        N132   1.348       .  A
C131       C1417   1.481   1_455  S
C133        N134   1.369       .  A
C133        N138   1.346       .  A
C133       C1408   1.489   1_455  S
N134        C135   1.375       .  A
C135        N136   1.372       .  A
N136        C137   1.366       .  A
C137        N138   1.348       .  A
C137       C1396   1.499       .  S
C139        N140   1.355       .  A
C139        N144   1.354       .  A
C139       C1372   1.472       .  S
N140        C141   1.355       .  A
C141        N142   1.354       .  A
C141       C1384   1.471   1_455  S
N142        C143   1.361       .  A
C143        N144   1.357       .  A
C143       C1528   1.486       .  S
C145        N146   1.370       .  A
C145        N150   1.353       .  A
C145       C1345   1.506       .  S
N146        C147   1.374       .  A
C147        N148   1.371       .  A
C147        C291   1.501       .  S
N148        C149   1.365       .  A
C149        N150   1.348       .  A
C149       C1357   1.494       .  S
C151        N152   1.352       .  A
C151        N156   1.354       .  A
C151       C1333   1.473       .  S
N152        C153   1.355       .  A
C153        N154   1.356       .  A
C153       C1321   1.477       .  S
N154        C155   1.362       .  A
C155        N156   1.361       .  A
C155       C1309   1.489       .  S
O157       Zr193   2.468       .  S
O157        C168   1.298       .  A
O158       Zr192   2.449       .  S
O158        C169   1.294       .  A
O159       Zr165   2.433       .  S
O159        C170   1.290       .  A
O160       Zr165   2.482       .  S
O160        C171   1.301       .  A
O161       Zr195   2.436       .  S
O161        C171   1.291       .  A
O162       Zr194   2.419       .  S
O162        C170   1.290       .  A
O163       Zr165   2.400       .  S
O163        C169   1.285       .  A
O164       Zr165   2.408       .  S
O164        C168   1.286       .  A
Zr165       O166   2.326       .  S
Zr165       O167   2.342       .  S
Zr165       O175   2.323       .  S
Zr165       O173   2.360       .  S
O166       Zr192   2.356       .  S
O166       Zr195   2.343       .  S
O167       Zr193   2.326       .  S
O167       Zr194   2.350       .  S
C168       C1996   1.495       .  S
C169       C1432   1.484       .  S
C170       C1324   1.463       .  S
C171       C1453   1.505       .  S
H172        O173   0.968       .  S
O173       Zr192   2.340       .  S
O173       Zr194   2.343       .  S
H174        O175   0.965       .  S
O175       Zr193   2.330       .  S
O175       Zr195   2.331       .  S
O176       Zr192   2.458       .  S
O176        C199   1.295       .  A
O177       Zr193   2.429       .  S
O177        C200   1.290       .  A
O178       Zr194   2.445       .  S
O178        C201   1.293       .  A
O179       Zr195   2.442       .  S
O179        C202   1.293       .  A
O180       Zr195   2.474       .  S
O180        C203   1.300       .  A
O181       Zr194   2.418       .  S
O181        C204   1.287       .  A
O182       Zr196   2.449       .  S
O182        C205   1.294       .  A
O183       Zr196   2.428       .  S
O183        C206   1.290       .  A
O184       Zr194   2.450       .  S
O184        C205   1.293       .  A
O185       Zr195   2.423       .  S
O185        C206   1.291       .  A
O186       Zr192   2.448       .  S
O186        C201   1.293       .  A
O187       Zr193   2.435       .  S
O187        C204   1.292       .  A
O188       Zr193   2.432       .  S
O188        C203   1.290       .  A
O189       Zr192   2.398       .  S
O189        C202   1.285       .  A
O190       Zr196   2.441       .  S
O190        C199   1.292       .  A
O191       Zr196   2.427       .  S
O191        C200   1.291       .  A
Zr192       O198   2.333       .  S
Zr192       O210   2.346       .  S
Zr193       O197   2.343       .  S
Zr193       O208   2.348       .  S
Zr194       O198   2.328       .  S
Zr194       O208   2.337       .  S
Zr195       O197   2.329       .  S
Zr195       O210   2.356       .  S
Zr196       O197   2.346       .  S
Zr196       O198   2.332       .  S
Zr196       O210   2.338       .  S
Zr196       O208   2.328       .  S
C199       C1288   1.485       .  S
C200       C1276   1.464       .  S
C201       C1348   1.504       .  S
C202       C1300   1.452       .  S
C203       C1624   1.500       .  S
C204       C1972   1.459       .  S
C205       C1261   1.508       .  S
C206       C1597   1.469       .  S
H207        O208   0.966       .  S
H209        O210   0.969       .  S
C211        N212   1.369       .  A
C211        N216   1.350       .  A
C211       C1249   1.500       .  S
N212        C213   1.372       .  A
C213        N214   1.373       .  A
C213        C605   1.499       .  S
N214        C215   1.366       .  A
C215        N216   1.350       .  A
C215       C1240   1.502       .  S
C217        N218   1.353       .  A
C217        N222   1.360       .  A
C217       C1225   1.483       .  S
N218        C219   1.353       .  A
C219        N220   1.347       .  A
C219       C1213   1.469       .  S
N220        C221   1.358       .  A
C221        N222   1.364       .  A
C221       C1201   1.485       .  S
O223       Zr259   2.490       .  S
O223        C234   1.303       .  A
O224       Zr258   2.430       .  S
O224        C235   1.290       .  A
O225       Zr231   2.440       .  S
O225        C236   1.292       .  A
O226       Zr231   2.472       .  S
O226        C237   1.300       .  A
O227       Zr261   2.416       .  S
O227        C237   1.287       .  A
O228       Zr260   2.428       .  S
O228        C236   1.290       .  A
O229       Zr231   2.415       .  S
O229        C235   1.288       .  A
O230       Zr231   2.408       .  S
O230        C234   1.285       .  A
Zr231       O232   2.322       .  S
Zr231       O233   2.341       .  S
Zr231       O241   2.331       .  S
Zr231       O239   2.348       .  S
O232       Zr258   2.345       .  S
O232       Zr261   2.340       .  S
O233       Zr259   2.335       .  S
O233       Zr260   2.352       .  S
C234       C1816   1.501       .  S
C235       C1696   1.456       .  S
C236       C1165   1.465       .  S
C237       C1717   1.496       .  S
H238        O239   0.966       .  S
O239       Zr258   2.343       .  S
O239       Zr260   2.335       .  S
H240        O241   0.966       .  S
O241       Zr259   2.331       .  S
O241       Zr261   2.325       .  S
O242       Zr258   2.458       .  S
O242        C265   1.296       .  A
O243       Zr259   2.471       .  S
O243        C266   1.298       .  A
O244       Zr260   2.478       .  S
O244        C267   1.301       .  A
O245       Zr261   2.429       .  S
O245        C268   1.290       .  A
O246       Zr261   2.478       .  S
O246        C269   1.300       .  A
O247       Zr260   2.446       .  S
O247        C270   1.294       .  A
O248       Zr262   2.474       .  S
O248        C271   1.299       .  A
O249       Zr262   2.447       .  S
O249        C272   1.293       .  A
O250       Zr260   2.442       .  S
O250        C271   1.292       .  A
O251       Zr261   2.408       .  S
O251        C272   1.287       .  A
O252       Zr258   2.420       .  S
O252        C267   1.289       .  A
O253       Zr259   2.404       .  S
O253        C270   1.288       .  A
O254       Zr259   2.411       .  S
O254        C269   1.287       .  A
O255       Zr258   2.422       .  S
O255        C268   1.290       .  A
O256       Zr262   2.429       .  S
O256        C265   1.290       .  A
O257       Zr262   2.376       .  S
O257        C266   1.280       .  A
Zr258       O264   2.334       .  S
Zr258       O276   2.331       .  S
Zr259       O263   2.332       .  S
Zr259       O274   2.357       .  S
Zr260       O264   2.340       .  S
Zr260       O274   2.344       .  S
Zr261       O263   2.320       .  S
Zr261       O276   2.361       .  S
Zr262       O263   2.349       .  S
Zr262       O264   2.324       .  S
Zr262       O276   2.339       .  S
Zr262       O274   2.337       .  S
C265       C1177   1.503       .  S
C266       C1216   1.482       .  S
C267       C1153   1.497       .  S
C268       C1192   1.458       .  S
C269       C1564   1.491       .  S
C270       C1792   1.466       .  S
C271       C1237   1.500       .  S
C272       C1540   1.463       .  S
H273        O274   0.968       .  S
H275        O276   0.966       .  S
C277        N278   1.351       .  A
C277        N282   1.367       .  A
C277       C1285   1.491       .  S
N278        C279   1.352       .  A
C279        N280   1.371       .  A
C279       C1144   1.501       .  S
N280        C281   1.376       .  A
C281        N282   1.372       .  A
C281        C435   1.508       .  S
C283        N284   1.352       .  A
C283        N288   1.352       .  A
C283       C1129   1.455       .  S
N284        C285   1.355       .  A
C285        N286   1.357       .  A
C285       C1204   1.480       .  S
N286        C287   1.352       .  A
C287        N288   1.350       .  A
C287       C1297   1.463       .  S
C289        N290   1.370       .  A
C289        N294   1.347       .  A
C289       C1117   1.503       .  S
N290        C291   1.375       .  A
C291        N292   1.374       .  A
N292        C293   1.366       .  A
C293        N294   1.349       .  A
C293       C1180   1.498       .  S
C295        N296   1.355       .  A
C295        N300   1.355       .  A
C295       C1189   1.474       .  S
N296        C297   1.352       .  A
C297        N298   1.355       .  A
C297       C1108   1.474       .  S
N298        C299   1.363       .  A
C299        N300   1.360       .  A
C299       C1096   1.491       .  S
O301       Zr337   2.484       .  S
O301        C312   1.301       .  A
O302       Zr336   2.478       .  S
O302        C313   1.300       .  A
O303       Zr309   2.491       .  S
O303        C314   1.302       .  A
O304       Zr309   2.469       .  S
O304        C315   1.297       .  A
O305       Zr339   2.416       .  S
O305        C315   1.288       .  A
O306       Zr338   2.431       .  S
O306        C314   1.291       .  A
O307       Zr309   2.386       .  S
O307        C313   1.283       .  A
O308       Zr309   2.394       .  S
O308        C312   1.283       .  A
Zr309       O310   2.350       .  S
Zr309       O311   2.331       .  S
Zr309       O319   2.338       .  S
Zr309       O317   2.333       .  S
O310       Zr336   2.342       .  S
O310       Zr339   2.335       .  S
O311       Zr337   2.326       .  S
O311       Zr338   2.332       .  S
C312       C2005   1.487       .  S
C313       C1480   1.482       .  S
C314       C1504   1.516       .  S
C315       C1105   1.470       .  S
H316        O317   0.966       .  S
O317       Zr336   2.357       .  S
O317       Zr338   2.351       .  S
H318        O319   0.963       .  S
O319       Zr337   2.334       .  S
O319       Zr339   2.369       .  S
O320       Zr336   2.510       .  S
O320        C343   1.306       .  A
O321       Zr337   2.440       .  S
O321        C344   1.292       .  A
O322       Zr338   2.445       .  S
O322        C345   1.293       .  A
O323       Zr339   2.514       .  S
O323        C346   1.307       .  A
O324       Zr339   2.464       .  S
O324        C347   1.298       .  A
O325       Zr338   2.488       .  S
O325        C348   1.302       .  A
O326       Zr340   2.441       .  S
O326        C349   1.292       .  A
O327       Zr340   2.471       .  S
O327        C350   1.298       .  A
O328       Zr338   2.413       .  S
O328        C349   1.287       .  A
O329       Zr339   2.436       .  S
O329        C350   1.292       .  A
O330       Zr336   2.395       .  S
O330        C345   1.287       .  A
O331       Zr337   2.429       .  S
O331        C348   1.290       .  A
O332       Zr337   2.399       .  S
O332        C347   1.286       .  A
O333       Zr336   2.399       .  S
O333        C346   1.285       .  A
O334       Zr340   2.411       .  S
O334        C343   1.285       .  A
O335       Zr340   2.408       .  S
O335        C344   1.286       .  A
Zr336       O342   2.330       .  S
Zr336       O354   2.330       .  S
Zr337       O341   2.358       .  S
Zr337       O352   2.339       .  S
Zr338       O342   2.355       .  S
Zr338       O352   2.336       .  S
Zr339       O341   2.346       .  S
Zr339       O354   2.334       .  S
Zr340       O341   2.328       .  S
Zr340       O342   2.339       .  S
Zr340       O354   2.329       .  S
Zr340       O352   2.355       .  S
C343       C1141   1.511       .  S
C344       C1081   1.457       .  S
C345       C1132   1.477       .  S
C346       C1120   1.501       .  S
C347       C1984   1.476       .  S
C348       C1828   1.508       .  S
C349       C1804   1.459       .  S
C350       C1069   1.500       .  S
H351        O352   0.967       .  S
H353        O354   0.967       .  S
C355        N356   1.350       .  A
C355        N360   1.369       .  A
C355       C1057   1.509       .  S
N356        C357   1.350       .  A
C357        N358   1.368       .  A
C357       C1045   1.500       .  S
N358        C359   1.375       .  A
C359        N360   1.374       .  A
C359        C461   1.503       .  S
C361        N362   1.354       .  A
C361        N366   1.359       .  A
C361       C1021   1.475       .  S
N362        C363   1.353       .  A
C363        N364   1.353       .  A
C363       C1033   1.485       .  S
N364        C365   1.362       .  A
C365        N366   1.362       .  A
C365       C1312   1.489   1_655  S
C367        N368   1.366       .  A
C367        N372   1.347       .  A
C367       C1009   1.499       .  S
N368        C369   1.374       .  A
C369        N370   1.375       .  A
C369        C527   1.500       .  S
N370        C371   1.369       .  A
C371        N372   1.350       .  A
C371       C1264   1.509       .  S
C373        N374   1.351       .  A
C373        N378   1.352       .  A
C373       C1000   1.463       .  S
N374        C375   1.354       .  A
C375        N376   1.358       .  A
C375       C1273   1.483       .  S
N376        C377   1.362       .  A
C377        N378   1.357       .  A
C377        C985   1.486       .  S
O379       Zr415   2.488       .  S
O379        C390   1.301       .  A
O380       Zr414   2.455       .  S
O380        C391   1.294       .  A
O381       Zr387   2.462       .  S
O381        C392   1.297       .  A
O382       Zr387   2.420       .  S
O382        C393   1.288       .  A
O383       Zr417   2.428       .  S
O383        C393   1.291       .  A
O384       Zr416   2.420       .  S
O384        C392   1.288       .  A
O385       Zr387   2.397       .  S
O385        C391   1.286       .  A
O386       Zr387   2.420       .  S
O386        C390   1.287       .  A
Zr387       O388   2.348       .  S
Zr387       O389   2.324       .  S
Zr387       O397   2.336       .  S
Zr387       O395   2.323       .  S
O388       Zr414   2.336       .  S
O388       Zr417   2.332       .  S
O389       Zr415   2.329       .  S
O389       Zr416   2.337       .  S
C390       C1885   1.498       .  S
C391       C1729   1.483       .  S
C392       C1753   1.491       .  S
C393        C997   1.452       .  S
H394        O395   0.966       .  S
O395       Zr414   2.358       .  S
O395       Zr416   2.351       .  S
H396        O397   0.965       .  S
O397       Zr415   2.327       .  S
O397       Zr417   2.365       .  S
O398       Zr414   2.482       .  S
O398        C421   1.301       .  A
O399       Zr415   2.434       .  S
O399        C422   1.291       .  A
O400       Zr416   2.450       .  S
O400        C423   1.294       .  A
O401       Zr417   2.484       .  S
O401        C424   1.301       .  A
O402       Zr417   2.444       .  S
O402        C425   1.293       .  A
O403       Zr416   2.476       .  S
O403        C426   1.301       .  A
O404       Zr418   2.429       .  S
O404        C427   1.289       .  A
O405       Zr418   2.468       .  S
O405        C428   1.297       .  A
O406       Zr416   2.420       .  S
O406        C427   1.290       .  A
O407       Zr417   2.457       .  S
O407        C428   1.295       .  A
O408       Zr414   2.423       .  S
O408        C423   1.290       .  A
O409       Zr415   2.445       .  S
O409        C426   1.292       .  A
O410       Zr415   2.413       .  S
O410        C425   1.289       .  A
O411       Zr414   2.428       .  S
O411        C424   1.291       .  A
O412       Zr418   2.423       .  S
O412        C421   1.289       .  A
O413       Zr418   2.406       .  S
O413        C422   1.288       .  A
Zr414       O420   2.340       .  S
Zr414       O432   2.332       .  S
Zr415       O419   2.362       .  S
Zr415       O430   2.350       .  S
Zr416       O420   2.355       .  S
Zr416       O430   2.339       .  S
Zr417       O419   2.341       .  S
Zr417       O432   2.329       .  S
Zr418       O419   2.330       .  S
Zr418       O420   2.341       .  S
Zr418       O432   2.323       .  S
Zr418       O430   2.358       .  S
C421       C1048   1.502       .  S
C422        C973   1.469       .  S
C423       C1024   1.463       .  S
C424       C1012   1.503       .  S
C425       C1864   1.464       .  S
C426       C1444   1.512       .  S
C427       C1420   1.460       .  S
C428        C961   1.518       .  S
H429        O430   0.969       .  S
H431        O432   0.967       .  S
C433        N434   1.369       .  A
C433        N438   1.352       .  A
C433        C949   1.509       .  S
N434        C435   1.374       .  A
C435        N436   1.377       .  A
N436        C437   1.371       .  A
C437        N438   1.350       .  A
C437        C964   1.516       .  S
C439        N440   1.351       .  A
C439        N444   1.355       .  A
C439        C937   1.464       .  S
N440        C441   1.348       .  A
C441        N442   1.356       .  A
C441        C976   1.485       .  S
N442        C443   1.359       .  A
C443        N444   1.359       .  A
C443        C925   1.482       .  S
C445        N446   1.370       .  A
C445        N450   1.354       .  A
C445        C913   1.504       .  S
N446        C447   1.373       .  A
C447        N448   1.370       .  A
C447        C591   1.501       .  S
N448        C449   1.365       .  A
C449        N450   1.355       .  A
C449       C1072   1.496       .  S
C451        N452   1.356       .  A
C451        N456   1.351       .  A
C451       C1084   1.473       .  S
N452        C453   1.359       .  A
C453        N454   1.363       .  A
C453        C988   1.487       .  S
N454        C455   1.356       .  A
C455        N456   1.353       .  A
C455        C901   1.482       .  S
C457        N458   1.350       .  A
C457        N462   1.369       .  A
C457        C877   1.497       .  S
N458        C459   1.351       .  A
C459        N460   1.367       .  A
C459        C889   1.499       .  S
N460        C461   1.370       .  A
C461        N462   1.374       .  A
C463        N464   1.352       .  A
C463        N468   1.355       .  A
C463        C868   1.463       .  S
N464        C465   1.354       .  A
C465        N466   1.356       .  A
C465        C853   1.484       .  S
N466        C467   1.360       .  A
C467        N468   1.358       .  A
C467       C1093   1.486   1_655  S
O469       Zr505   2.476       .  S
O469        C480   1.300       .  A
O470       Zr504   2.444       .  S
O470        C481   1.292       .  A
O471       Zr477   2.439       .  S
O471        C482   1.292       .  A
O472       Zr477   2.462       .  S
O472        C483   1.297       .  A
O473       Zr507   2.445       .  S
O473        C483   1.293       .  A
O474       Zr506   2.418       .  S
O474        C482   1.289       .  A
O475       Zr477   2.429       .  S
O475        C481   1.290       .  A
O476       Zr477   2.422       .  S
O476        C480   1.288       .  A
Zr477       O478   2.330       .  S
Zr477       O479   2.348       .  S
Zr477       O487   2.339       .  S
Zr477       O485   2.345       .  S
O478       Zr504   2.346       .  S
O478       Zr507   2.353       .  S
O479       Zr505   2.329       .  S
O479       Zr506   2.354       .  S
C480       C1768   1.487       .  S
C481       C1492   1.467       .  S
C482        C865   1.458       .  S
C483       C1516   1.492       .  S
H484        O485   0.966       .  S
O485       Zr504   2.337       .  S
O485       Zr506   2.339       .  S
H486        O487   0.967       .  S
O487       Zr505   2.325       .  S
O487       Zr507   2.332       .  S
O488       Zr504   2.457       .  S
O488        C511   1.296       .  A
O489       Zr505   2.433       .  S
O489        C512   1.291       .  A
O490       Zr506   2.472       .  S
O490        C513   1.299       .  A
O491       Zr507   2.415       .  S
O491        C514   1.287       .  A
O492       Zr507   2.465       .  S
O492        C515   1.297       .  A
O493       Zr506   2.463       .  S
O493        C516   1.297       .  A
O494       Zr508   2.470       .  S
O494        C517   1.299       .  A
O495       Zr508   2.445       .  S
O495        C518   1.293       .  A
O496       Zr506   2.447       .  S
O496        C517   1.293       .  A
O497       Zr507   2.439       .  S
O497        C518   1.293       .  A
O498       Zr504   2.424       .  S
O498        C513   1.290       .  A
O499       Zr505   2.396       .  S
O499        C516   1.285       .  A
O500       Zr505   2.428       .  S
O500        C515   1.289       .  A
O501       Zr504   2.426       .  S
O501        C514   1.290       .  A
O502       Zr508   2.446       .  S
O502        C511   1.293       .  A
O503       Zr508   2.421       .  S
O503        C512   1.290       .  A
Zr504       O510   2.336       .  S
Zr504       O522   2.337       .  S
Zr505       O509   2.341       .  S
Zr505       O520   2.362       .  S
Zr506       O510   2.338       .  S
Zr506       O520   2.337       .  S
Zr507       O509   2.327       .  S
Zr507       O522   2.360       .  S
Zr508       O509   2.359       .  S
Zr508       O510   2.329       .  S
Zr508       O522   2.343       .  S
Zr508       O520   2.339       .  S
C511        C952   1.506       .  S
C512        C904   1.464       .  S
C513        C892   1.496       .  S
C514        C940   1.450       .  S
C515       C1672   1.489       .  S
C516       C1744   1.478       .  S
C517        C916   1.507       .  S
C518       C1648   1.474       .  S
H519        O520   0.967       .  S
H521        O522   0.969       .  S
C523        N524   1.348       .  A
C523        N528   1.368       .  A
C523        C832   1.497       .  S
N524        C525   1.351       .  A
C525        N526   1.367       .  A
C525        C844   1.502       .  S
N526        C527   1.372       .  A
C527        N528   1.374       .  A
C529        N530   1.354       .  A
C529        N534   1.357       .  A
C529        C817   1.480       .  S
N530        C531   1.362       .  A
C531        N532   1.361       .  A
C531        C793   1.487       .  S
N532        C533   1.358       .  A
C533        N534   1.358       .  A
C533        C805   1.497       .  S
O535       Zr571   2.470       .  S
O535        C546   1.299       .  A
O536       Zr570   2.461       .  S
O536        C547   1.295       .  A
O537       Zr543   2.457       .  S
O537        C548   1.295       .  A
O538       Zr543   2.500       .  S
O538        C549   1.304       .  A
O539       Zr573   2.406       .  S
O539        C549   1.286       .  A
O540       Zr572   2.421       .  S
O540        C548   1.290       .  A
O541       Zr543   2.433       .  S
O541        C547   1.294       .  A
O542       Zr543   2.437       .  S
O542        C546   1.292       .  A
Zr543       O544   2.327       .  S
Zr543       O545   2.342       .  S
Zr543       O553   2.342       .  S
Zr543       O551   2.360       .  S
O544       Zr570   2.355       .  S
O544       Zr573   2.346       .  S
O545       Zr571   2.334       .  S
O545       Zr572   2.351       .  S
C546       C1936   1.497       .  S
C547       C1381   1.487       .  S
C548       C1036   1.473       .  S
C549       C1405   1.490       .  S
H550        O551   0.965       .  S
O551       Zr570   2.344       .  S
O551       Zr572   2.328       .  S
H552        O553   0.967       .  S
O553       Zr571   2.340       .  S
O553       Zr573   2.335       .  S
O554       Zr570   2.485       .  S
O554        C577   1.302       .  A
O555       Zr571   2.466       .  S
O555        C578   1.296       .  A
O556       Zr572   2.482       .  S
O556        C579   1.300       .  A
O557       Zr573   2.434       .  S
O557        C580   1.291       .  A
O558       Zr573   2.476       .  S
O558        C581   1.300       .  A
O559       Zr572   2.443       .  S
O559        C582   1.293       .  A
O560       Zr574   2.455       .  S
O560        C583   1.295       .  A
O561       Zr574   2.434       .  S
O561        C584   1.290       .  A
O562       Zr572   2.433       .  S
O562        C583   1.291       .  A
O563       Zr573   2.424       .  S
O563        C584   1.290       .  A
O564       Zr570   2.442       .  S
O564        C579   1.292       .  A
O565       Zr571   2.414       .  S
O565        C582   1.290       .  A
O566       Zr571   2.428       .  S
O566        C581   1.290       .  A
O567       Zr570   2.418       .  S
O567        C580   1.291       .  A
O568       Zr574   2.420       .  S
O568        C577   1.288       .  A
O569       Zr574   2.414       .  S
O569        C578   1.287       .  A
Zr570       O576   2.337       .  S
Zr570       O588   2.344       .  S
Zr571       O575   2.334       .  S
Zr571       O586   2.358       .  S
Zr572       O576   2.333       .  S
Zr572       O586   2.353       .  S
Zr573       O575   2.319       .  S
Zr573       O588   2.354       .  S
Zr574       O575   2.339       .  S
Zr574       O576   2.340       .  S
Zr574       O588   2.344       .  S
Zr574       O586   2.337       .  S
C577        C769   1.501       .  S
C578        C820   1.472       .  S
C579       C1060   1.515       .  S
C580        C781   1.481       .  S
C581       C1876   1.500       .  S
C582       C1912   1.473       .  S
C583        C841   1.498       .  S
C584       C1852   1.461       .  S
H585        O586   0.966       .  S
H587        O588   0.970       .  S
C589        N590   1.368       .  A
C589        N594   1.347       .  A
C589       C1156   1.498       .  S
N590        C591   1.374       .  A
C591        N592   1.373       .  A
N592        C593   1.368       .  A
C593        N594   1.346       .  A
C593        C757   1.496       .  S
C595        N596   1.355       .  A
C595        N600   1.358       .  A
C595       C1168   1.476       .  S
N596        C597   1.355       .  A
C597        N598   1.355       .  A
C597        C745   1.473       .  S
N598        C599   1.357       .  A
C599        N600   1.362       .  A
C599        C796   1.489       .  S
C601        N602   1.349       .  A
C601        N606   1.362       .  A
C601        C733   1.491       .  S
N602        C603   1.353       .  A
C603        N604   1.371       .  A
C603        C772   1.499       .  S
N604        C605   1.375       .  A
C605        N606   1.368       .  A
C607        N608   1.352       .  A
C607        N612   1.351       .  A
C607        C784   1.460       .  S
N608        C609   1.359       .  A
C609        N610   1.361       .  A
C609        C928   1.478       .  S
N610        C611   1.357       .  A
C611        N612   1.349       .  A
C611        C724   1.484       .  S
O613       Zr649   2.475       .  S
O613        C624   1.299       .  A
O614       Zr648   2.441       .  S
O614        C625   1.292       .  A
O615       Zr621   2.480       .  S
O615        C626   1.300       .  A
O616       Zr621   2.455       .  S
O616        C627   1.295       .  A
O617       Zr651   2.410       .  S
O617        C627   1.289       .  A
O618       Zr650   2.435       .  S
O618        C626   1.292       .  A
O619       Zr621   2.400       .  S
O619        C625   1.285       .  A
O620       Zr621   2.430       .  S
O620        C624   1.290       .  A
Zr621       O622   2.356       .  S
Zr621       O623   2.330       .  S
Zr621       O631   2.348       .  S
Zr621       O629   2.339       .  S
O622       Zr648   2.339       .  S
O622       Zr651   2.331       .  S
O623       Zr649   2.326       .  S
O623       Zr650   2.326       .  S
C624       C1948   1.507       .  S
C625       C1552   1.452       .  S
C626       C1573   1.503       .  S
C627        C856   1.487       .  S
H628        O629   0.970       .  S
O629       Zr648   2.356       .  S
O629       Zr650   2.341       .  S
H630        O631   0.967       .  S
O631       Zr649   2.329       .  S
O631       Zr651   2.359       .  S
O632       Zr648   2.474       .  S
O632        C655   1.299       .  A
O633       Zr649   2.434       .  S
O633        C656   1.291       .  A
O634       Zr650   2.445       .  S
O634        C657   1.293       .  A
O635       Zr651   2.471       .  S
O635        C658   1.299       .  A
O636       Zr651   2.437       .  S
O636        C659   1.291       .  A
O637       Zr650   2.484       .  S
O637        C660   1.301       .  A
O638       Zr652   2.462       .  S
O638        C661   1.297       .  A
O639       Zr652   2.478       .  S
O639        C662   1.300       .  A
O640       Zr650   2.401       .  S
O640        C661   1.284       .  A
O641       Zr651   2.423       .  S
O641        C662   1.290       .  A
O642       Zr648   2.411       .  S
O642        C657   1.289       .  A
O643       Zr649   2.406       .  S
O643        C660   1.286       .  A
O644       Zr649   2.404       .  S
O644        C659   1.288       .  A
O645       Zr648   2.435       .  S
O645        C658   1.291       .  A
O646       Zr652   2.428       .  S
O646        C655   1.290       .  A
O647       Zr652   2.427       .  S
O647        C656   1.290       .  A
Zr648       O654   2.332       .  S
Zr648       O666   2.324       .  S
Zr649       O653   2.348       .  S
Zr649       O664   2.344       .  S
Zr650       O654   2.349       .  S
Zr650       O664   2.332       .  S
Zr651       O653   2.337       .  S
Zr651       O666   2.330       .  S
Zr652       O653   2.339       .  S
Zr652       O654   2.340       .  S
Zr652       O666   2.338       .  S
Zr652       O664   2.356       .  S
C655        C736   1.497       .  S
C656        C748   1.459       .  S
C657        C721   1.476       .  S
C658        C880   1.502       .  S
C659       C1924   1.482       .  S
C660       C1660   1.502       .  S
C661       C1636   1.492       .  S
C662        C760   1.502       .  S
H663        O664   0.966       .  S
H665        O666   0.966       .  S
O667       Zr703   2.482       .  S
O667        C678   1.301       .  A
O668       Zr702   2.456       .  S
O668        C679   1.295       .  A
O669       Zr675   2.487       .  S
O669        C680   1.302       .  A
O670       Zr675   2.469       .  S
O670        C681   1.297       .  A
O671       Zr705   2.409       .  S
O671        C681   1.289       .  A
O672       Zr704   2.403       .  S
O672        C680   1.286       .  A
O673       Zr675   2.395       .  S
O673        C679   1.285       .  A
O674       Zr675   2.412       .  S
O674        C678   1.287       .  A
Zr675       O676   2.351       .  S
Zr675       O677   2.334       .  S
Zr675       O685   2.342       .  S
Zr675       O683   2.341       .  S
O676       Zr702   2.341       .  S
O676       Zr705   2.325       .  S
O677       Zr703   2.333       .  S
O677       Zr704   2.336       .  S
C678       C1708   1.494       .  S
C679       C1369   1.462       .  S
C680       C1393   1.504       .  S
C681       C1336   1.488       .  S
H682        O683   0.967       .  S
O683       Zr702   2.359       .  S
O683       Zr704   2.345       .  S
H684        O685   0.967       .  S
O685       Zr703   2.336       .  S
O685       Zr705   2.357       .  S
O686       Zr702   2.490       .  S
O686        C709   1.303       .  A
O687       Zr703   2.462       .  S
O687        C710   1.296       .  A
O688       Zr704   2.459       .  S
O688        C711   1.295       .  A
O689       Zr705   2.489       .  S
O689        C712   1.303       .  A
O690       Zr705   2.444       .  S
O690        C713   1.292       .  A
O691       Zr704   2.480       .  S
O691        C714   1.300       .  A
O692       Zr706   2.453       .  S
O692        C715   1.295       .  A
O693       Zr706   2.488       .  S
O693        C716   1.302       .  A
O694       Zr704   2.395       .  S
O694        C715   1.284       .  A
O695       Zr705   2.420       .  S
O695        C716   1.288       .  A
O696       Zr702   2.414       .  S
O696        C711   1.288       .  A
O697       Zr703   2.430       .  S
O697        C714   1.290       .  A
O698       Zr703   2.415       .  S
O698        C713   1.288       .  A
O699       Zr702   2.415       .  S
O699        C712   1.287       .  A
O700       Zr706   2.411       .  S
O700        C709   1.286       .  A
O701       Zr706   2.408       .  S
O701        C710   1.288       .  A
Zr702       O708   2.335       .  S
Zr702       O720   2.334       .  S
Zr703       O707   2.353       .  S
Zr703       O718   2.341       .  S
Zr704       O708   2.347       .  S
Zr704       O718   2.334       .  S
Zr705       O707   2.341       .  S
Zr705       O720   2.329       .  S
Zr706       O707   2.328       .  S
Zr706       O708   2.345       .  S
Zr706       O720   2.335       .  S
Zr706       O718   2.350       .  S
C709       C1252   1.506       .  S
C710        C808   1.481       .  S
C711       C1228   1.471       .  S
C712       C1360   1.498       .  S
C713       C1684   1.459       .  S
C714       C1612   1.497       .  S
C715       C1588   1.481       .  S
C716        C829   1.502       .  S
H717        O718   0.968       .  S
H719        O720   0.966       .  S
C721        C722   1.403       .  A
C721        C726   1.411       .  A
C722        C723   1.396       .  A
C722        H727   1.085       .  S
C723        C724   1.419       .  A
C723        C730   1.446       .  S
C724        C725   1.404       .  A
C725        C726   1.396       .  A
C725        H728   1.084       .  S
C726        C729   1.443       .  S
C729        N731   1.157       .  T
C730        N732   1.158       .  T
C733        C734   1.407       .  A
C733        C738   1.411       .  A
C734        C735   1.401       .  A
C734        H739   1.085       .  S
C735        C736   1.413       .  A
C735        C742   1.444       .  S
C736        C737   1.413       .  A
C737        C738   1.409       .  A
C737        H740   1.084       .  S
C738        C741   1.444       .  S
C741        N743   1.157       .  T
C742        N744   1.157       .  T
C745        C746   1.405       .  A
C745        C750   1.413       .  A
C746        C747   1.396       .  A
C746        H751   1.083       .  S
C747        C748   1.405       .  A
C747        C754   1.445       .  S
C748        C749   1.400       .  A
C749        C750   1.398       .  A
C749        H752   1.086       .  S
C750        C753   1.444       .  S
C753        N755   1.157       .  T
C754        N756   1.157       .  T
C757        C758   1.413       .  A
C757        C762   1.408       .  A
C758        C759   1.402       .  A
C758        H763   1.085       .  S
C759        C760   1.415       .  A
C759        C766   1.446       .  S
C760        C761   1.416       .  A
C761        C762   1.407       .  A
C761        H764   1.084       .  S
C762        C765   1.443       .  S
C765        N767   1.157       .  T
C766        N768   1.158       .  T
C769        C770   1.416       .  A
C769        C774   1.411       .  A
C770        C771   1.413       .  A
C770        H775   1.084       .  S
C771        C772   1.412       .  A
C771        C778   1.444       .  S
C772        C773   1.410       .  A
C773        C774   1.400       .  A
C773        H776   1.085       .  S
C774        C777   1.444       .  S
C777        N779   1.157       .  T
C778        N780   1.158       .  T
C781        C782   1.408       .  A
C781        C786   1.417       .  A
C782        C783   1.388       .  A
C782        H787   1.083       .  S
C783        C784   1.401       .  A
C783        C790   1.446       .  S
C784        C785   1.402       .  A
C785        C786   1.402       .  A
C785        H788   1.085       .  S
C786        C789   1.444       .  S
C789        N791   1.157       .  T
C790        N792   1.157       .  T
C793        C794   1.404       .  A
C793        C798   1.413       .  A
C794        C795   1.396   1_554  A
C794        H799   1.085       .  S
C795        C796   1.418       .  A
C795        C802   1.444       .  S
C796        C797   1.407       .  A
C797        C798   1.399   1_556  A
C797        H800   1.084       .  S
C798        C801   1.443       .  S
C801        N803   1.157       .  T
C802        N804   1.157       .  T
C805        C806   1.413       .  A
C805        C810   1.419       .  A
C806        C807   1.406       .  A
C806        H811   1.083       .  S
C807        C808   1.410       .  A
C807        C814   1.444       .  S
C808        C809   1.402       .  A
C809        C810   1.394       .  A
C809        H812   1.086       .  S
C810        C813   1.444       .  S
C813        N815   1.157       .  T
C814        N816   1.157       .  T
C817        C818   1.405       .  A
C817        C822   1.413       .  A
C818        C819   1.398       .  A
C818        H823   1.085       .  S
C819        C820   1.405       .  A
C819        C826   1.443       .  S
C820        C821   1.406       .  A
C821        C822   1.406       .  A
C821        H824   1.085       .  S
C822        C825   1.444       .  S
C825        N827   1.158       .  T
C826        N828   1.157       .  T
C829        C830   1.403       .  A
C829        C834   1.425       .  A
C830        C831   1.405       .  A
C830        H835   1.085       .  S
C831        C832   1.421       .  A
C831        C838   1.445       .  S
C832        C833   1.401       .  A
C833        C834   1.409       .  A
C833        H836   1.085       .  S
C834        C837   1.444       .  S
C837        N839   1.157       .  T
C838        N840   1.157       .  T
C841        C842   1.412       .  A
C841        C846   1.413       .  A
C842        C843   1.409       .  A
C842        H847   1.083       .  S
C843        C844   1.414       .  A
C843        C850   1.443       .  S
C844        C845   1.412       .  A
C845        C846   1.398       .  A
C845        H848   1.084       .  S
C846        C849   1.445       .  S
C849        N851   1.157       .  T
C850        N852   1.157       .  T
C853        C854   1.408       .  A
C853        C858   1.414       .  A
C854        C855   1.401       .  A
C854        H859   1.085       .  S
C855        C856   1.414       .  A
C855        C862   1.443       .  S
C856        C857   1.407       .  A
C857        C858   1.392       .  A
C857        H860   1.085       .  S
C858        C861   1.445       .  S
C861        N863   1.157       .  T
C862        N864   1.157       .  T
C865        C866   1.400       .  A
C865        C870   1.409       .  A
C866        C867   1.400       .  A
C866        H871   1.085       .  S
C867        C868   1.412       .  A
C867        C874   1.444       .  S
C868        C869   1.398       .  A
C869        C870   1.393       .  A
C869        H872   1.085       .  S
C870        C873   1.444       .  S
C873        N875   1.157       .  T
C874        N876   1.157       .  T
C877        C878   1.402       .  A
C877        C882   1.421       .  A
C878        C879   1.410       .  A
C878        H883   1.085       .  S
C879        C880   1.422       .  A
C879        C886   1.444       .  S
C880        C881   1.404       .  A
C881        C882   1.405       .  A
C881        H884   1.085       .  S
C882        C885   1.446       .  S
C885        N887   1.158       .  T
C886        N888   1.157       .  T
C889        C890   1.413       .  A
C889        C894   1.413       .  A
C890        C891   1.402       .  A
C890        H895   1.085       .  S
C891        C892   1.412       .  A
C891        C898   1.446       .  S
C892        C893   1.412       .  A
C893        C894   1.407       .  A
C893        H896   1.085       .  S
C894        C897   1.443       .  S
C897        N899   1.157       .  T
C898        N900   1.158       .  T
C901        C902   1.410       .  A
C901        C906   1.416       .  A
C902        C903   1.394       .  A
C902        H907   1.085       .  S
C903        C904   1.405       .  A
C903        C910   1.446       .  S
C904        C905   1.401       .  A
C905        C906   1.399       .  A
C905        H908   1.086       .  S
C906        C909   1.443       .  S
C909        N911   1.157       .  T
C910        N912   1.158       .  T
C913        C914   1.406       .  A
C913        C918   1.421       .  A
C914        C915   1.413       .  A
C914        H919   1.085       .  S
C915        C916   1.423       .  A
C915        C922   1.442       .  S
C916        C917   1.404       .  A
C917        C918   1.402       .  A
C917        H920   1.085       .  S
C918        C921   1.444       .  S
C921        N923   1.157       .  T
C922        N924   1.157       .  T
C925        C926   1.407       .  A
C925        C930   1.414       .  A
C926        C927   1.397   1_565  A
C926        H931   1.084       .  S
C927        C928   1.410       .  A
C927        C934   1.444       .  S
C928        C929   1.403       .  A
C929        C930   1.394   1_545  A
C929        H932   1.084       .  S
C930        C933   1.444       .  S
C933        N935   1.157       .  T
C934        N936   1.157       .  T
C937        C938   1.405       .  A
C937        C942   1.409       .  A
C938        C939   1.391       .  A
C938        H943   1.085       .  S
C939        C940   1.402       .  A
C939        C946   1.443       .  S
C940        C941   1.400       .  A
C941        C942   1.395       .  A
C941        H944   1.086       .  S
C942        C945   1.444       .  S
C945        N947   1.157       .  T
C946        N948   1.157       .  T
C949        C950   1.412       .  A
C949        C954   1.416       .  A
C950        C951   1.398       .  A
C950        H955   1.084       .  S
C951        C952   1.415       .  A
C951        C958   1.446       .  S
C952        C953   1.415       .  A
C953        C954   1.415       .  A
C953        H956   1.084       .  S
C954        C957   1.443       .  S
C957        N959   1.157       .  T
C958        N960   1.158       .  T
C961        C962   1.417       .  A
C961        C966   1.419       .  A
C962        C963   1.416       .  A
C962        H967   1.083       .  S
C963        C964   1.414       .  A
C963        C970   1.442       .  S
C964        C965   1.414       .  A
C965        C966   1.404       .  A
C965        H968   1.084       .  S
C966        C969   1.446       .  S
C969        N971   1.158       .  T
C970        N972   1.157       .  T
C973        C974   1.402       .  A
C973        C978   1.408       .  A
C974        C975   1.392       .  A
C974        H979   1.086       .  S
C975        C976   1.420       .  A
C975        C982   1.446       .  S
C976        C977   1.407       .  A
C977        C978   1.394       .  A
C977        H980   1.081       .  S
C978        C981   1.444       .  S
C981        N983   1.157       .  T
C982        N984   1.158       .  T
C985        C986   1.404       .  A
C985        C990   1.415       .  A
C986        C987   1.397   1_554  A
C986        H991   1.084       .  S
C987        C988   1.416       .  A
C987        C994   1.443       .  S
C988        C989   1.406       .  A
C989        C990   1.397   1_556  A
C989        H992   1.084       .  S
C990        C993   1.444       .  S
C993        N995   1.157       .  T
C994        N996   1.157       .  T
C997        C998   1.400       .  A
C997       C1002   1.403       .  A
C998        C999   1.394       .  A
C998       H1003   1.086       .  S
C999       C1000   1.409       .  A
C999       C1006   1.444       .  S
C1000      C1001   1.405       .  A
C1001      C1002   1.395       .  A
C1001      H1004   1.085       .  S
C1002      C1005   1.445       .  S
C1005      N1007   1.157       .  T
C1006      N1008   1.157       .  T
C1009      C1010   1.410       .  A
C1009      C1014   1.411       .  A
C1010      C1011   1.401       .  A
C1010      H1015   1.085       .  S
C1011      C1012   1.414       .  A
C1011      C1018   1.443       .  S
C1012      C1013   1.415       .  A
C1013      C1014   1.412       .  A
C1013      H1016   1.084       .  S
C1014      C1017   1.442       .  S
C1017      N1019   1.157       .  T
C1018      N1020   1.157       .  T
C1021      C1022   1.407       .  A
C1021      C1026   1.410       .  A
C1022      C1023   1.394       .  A
C1022      H1027   1.085       .  S
C1023      C1024   1.404       .  A
C1023      C1030   1.445       .  S
C1024      C1025   1.405       .  A
C1025      C1026   1.402       .  A
C1025      H1028   1.085       .  S
C1026      C1029   1.444       .  S
C1029      N1031   1.157       .  T
C1030      N1032   1.157       .  T
C1033      C1034   1.408       .  A
C1033      C1038   1.416       .  A
C1034      C1035   1.396       .  A
C1034      H1039   1.085       .  S
C1035      C1036   1.408       .  A
C1035      C1042   1.445       .  S
C1036      C1037   1.404       .  A
C1037      C1038   1.404       .  A
C1037      H1040   1.085       .  S
C1038      C1041   1.444       .  S
C1041      N1043   1.157       .  T
C1042      N1044   1.157       .  T
C1045      C1046   1.411       .  A
C1045      C1050   1.412       .  A
C1046      C1047   1.401       .  A
C1046      H1051   1.085       .  S
C1047      C1048   1.413       .  A
C1047      C1054   1.445       .  S
C1048      C1049   1.416       .  A
C1049      C1050   1.412       .  A
C1049      H1052   1.084       .  S
C1050      C1053   1.443       .  S
C1053      N1055   1.157       .  T
C1054      N1056   1.157       .  T
C1057      C1058   1.412       .  A
C1057      C1062   1.412       .  A
C1058      C1059   1.403       .  A
C1058      H1063   1.084       .  S
C1059      C1060   1.417       .  A
C1059      C1066   1.444       .  S
C1060      C1061   1.418       .  A
C1061      C1062   1.415       .  A
C1061      H1064   1.084       .  S
C1062      C1065   1.443       .  S
C1065      N1067   1.158       .  T
C1066      N1068   1.157       .  T
C1069      C1070   1.414       .  A
C1069      C1074   1.414       .  A
C1070      C1071   1.412       .  A
C1070      H1075   1.084       .  S
C1071      C1072   1.412       .  A
C1071      C1078   1.442       .  S
C1072      C1073   1.404       .  A
C1073      C1074   1.399       .  A
C1073      H1076   1.080       .  S
C1074      C1077   1.443       .  S
C1077      N1079   1.156       .  T
C1078      N1080   1.157       .  T
C1081      C1082   1.401       .  A
C1081      C1086   1.407       .  A
C1082      C1083   1.396       .  A
C1082      H1087   1.086       .  S
C1083      C1084   1.410       .  A
C1083      C1090   1.443       .  S
C1084      C1085   1.407       .  A
C1085      C1086   1.395       .  A
C1085      H1088   1.085       .  S
C1086      C1089   1.445       .  S
C1089      N1091   1.158       .  T
C1090      N1092   1.157       .  T
C1093      C1094   1.403       .  A
C1093      C1098   1.413       .  A
C1094      C1095   1.395       .  A
C1094      H1099   1.085       .  S
C1095      C1096   1.420       .  A
C1095      C1102   1.445       .  S
C1096      C1097   1.409       .  A
C1097      C1098   1.400       .  A
C1097      H1100   1.085       .  S
C1098      C1101   1.445       .  S
C1101      N1103   1.158       .  T
C1102      N1104   1.157       .  T
C1105      C1106   1.399       .  A
C1105      C1110   1.411       .  A
C1106      C1107   1.399       .  A
C1106      H1111   1.085       .  S
C1107      C1108   1.414       .  A
C1107      C1114   1.444       .  S
C1108      C1109   1.401       .  A
C1109      C1110   1.402       .  A
C1109      H1112   1.085       .  S
C1110      C1113   1.443       .  S
C1113      N1115   1.157       .  T
C1114      N1116   1.157       .  T
C1117      C1118   1.416       .  A
C1117      C1122   1.411       .  A
C1118      C1119   1.405       .  A
C1118      H1123   1.085       .  S
C1119      C1120   1.408       .  A
C1119      C1126   1.443       .  S
C1120      C1121   1.416       .  A
C1121      C1122   1.410       .  A
C1121      H1124   1.085       .  S
C1122      C1125   1.443       .  S
C1125      N1127   1.157       .  T
C1126      N1128   1.157       .  T
C1129      C1130   1.401       .  A
C1129      C1134   1.401       .  A
C1130      C1131   1.398       .  A
C1130      H1135   1.085       .  S
C1131      C1132   1.415       .  A
C1131      C1138   1.444       .  S
C1132      C1133   1.411       .  A
C1133      C1134   1.386       .  A
C1133      H1136   1.085       .  S
C1134      C1137   1.446       .  S
C1137      N1139   1.157       .  T
C1138      N1140   1.157       .  T
C1141      C1142   1.404       .  A
C1141      C1146   1.430       .  A
C1142      C1143   1.407       .  A
C1142      H1147   1.085       .  S
C1143      C1144   1.420       .  A
C1143      C1150   1.444       .  S
C1144      C1145   1.401       .  A
C1145      C1146   1.411       .  A
C1145      H1148   1.085       .  S
C1146      C1149   1.445       .  S
C1149      N1151   1.158       .  T
C1150      N1152   1.157       .  T
C1153      C1154   1.415       .  A
C1153      C1158   1.411       .  A
C1154      C1155   1.409       .  A
C1154      H1159   1.084       .  S
C1155      C1156   1.410       .  A
C1155      C1162   1.443       .  S
C1156      C1157   1.413       .  A
C1157      C1158   1.400       .  A
C1157      H1160   1.085       .  S
C1158      C1161   1.445       .  S
C1161      N1163   1.157       .  T
C1162      N1164   1.157       .  T
C1165      C1166   1.398       .  A
C1165      C1170   1.409       .  A
C1166      C1167   1.397       .  A
C1166      H1171   1.085       .  S
C1167      C1168   1.415       .  A
C1167      C1174   1.444       .  S
C1168      C1169   1.403       .  A
C1169      C1170   1.399       .  A
C1169      H1172   1.085       .  S
C1170      C1173   1.442       .  S
C1173      N1175   1.157       .  T
C1174      N1176   1.157       .  T
C1177      C1178   1.416       .  A
C1177      C1182   1.415       .  A
C1178      C1179   1.411       .  A
C1178      H1183   1.084       .  S
C1179      C1180   1.412       .  A
C1179      C1186   1.443       .  S
C1180      C1181   1.410       .  A
C1181      C1182   1.396       .  A
C1181      H1184   1.085       .  S
C1182      C1185   1.445       .  S
C1185      N1187   1.157       .  T
C1186      N1188   1.157       .  T
C1189      C1190   1.406       .  A
C1189      C1194   1.413       .  A
C1190      C1191   1.392       .  A
C1190      H1195   1.082       .  S
C1191      C1192   1.402       .  A
C1191      C1198   1.444       .  S
C1192      C1193   1.403       .  A
C1193      C1194   1.399       .  A
C1193      H1196   1.085       .  S
C1194      C1197   1.444       .  S
C1197      N1199   1.157       .  T
C1198      N1200   1.157       .  T
C1201      C1202   1.409   1_545  A
C1201      C1206   1.413   1_545  A
C1202      C1203   1.394       .  A
C1202      H1207   1.084   1_565  S
C1203      C1204   1.414       .  A
C1203      C1210   1.446       .  S
C1204      C1205   1.405       .  A
C1205      C1206   1.394       .  A
C1205      H1208   1.085       .  S
C1206      C1209   1.442   1_565  S
C1209      N1211   1.157       .  T
C1210      N1212   1.158       .  T
C1213      C1214   1.391       .  A
C1213      C1218   1.415       .  A
C1214      C1215   1.383       .  A
C1214      H1219   1.086       .  S
C1215      C1216   1.425       .  A
C1215      C1222   1.446       .  S
C1216      C1217   1.405       .  A
C1217      C1218   1.404       .  A
C1217      H1220   1.084       .  S
C1218      C1221   1.444       .  S
C1221      N1223   1.157       .  T
C1222      N1224   1.157       .  T
C1225      C1226   1.407       .  A
C1225      C1230   1.413       .  A
C1226      C1227   1.396       .  A
C1226      H1231   1.085       .  S
C1227      C1228   1.409       .  A
C1227      C1234   1.446       .  S
C1228      C1229   1.403       .  A
C1229      C1230   1.403       .  A
C1229      H1232   1.085       .  S
C1230      C1233   1.442       .  S
C1233      N1235   1.157       .  T
C1234      N1236   1.158       .  T
C1237      C1238   1.412       .  A
C1237      C1242   1.413       .  A
C1238      C1239   1.412       .  A
C1238      H1243   1.084       .  S
C1239      C1240   1.414       .  A
C1239      C1246   1.443       .  S
C1240      C1241   1.411       .  A
C1241      C1242   1.401       .  A
C1241      H1244   1.085       .  S
C1242      C1245   1.445       .  S
C1245      N1247   1.157       .  T
C1246      N1248   1.157       .  T
C1249      C1250   1.401       .  A
C1249      C1254   1.423       .  A
C1250      C1251   1.409       .  A
C1250      H1255   1.085       .  S
C1251      C1252   1.429       .  A
C1251      C1258   1.445       .  S
C1252      C1253   1.403       .  A
C1253      C1254   1.402       .  A
C1253      H1256   1.085       .  S
C1254      C1257   1.446       .  S
C1257      N1259   1.157       .  T
C1258      N1260   1.158       .  T
C1261      C1262   1.416       .  A
C1261      C1266   1.418       .  A
C1262      C1263   1.415       .  A
C1262      H1267   1.083       .  S
C1263      C1264   1.414       .  A
C1263      C1270   1.442       .  S
C1264      C1265   1.412       .  A
C1265      C1266   1.396       .  A
C1265      H1268   1.084       .  S
C1266      C1269   1.447       .  S
C1269      N1271   1.158       .  T
C1270      N1272   1.157       .  T
C1273      C1274   1.410       .  A
C1273      C1278   1.416       .  A
C1274      C1275   1.396       .  A
C1274      H1279   1.084       .  S
C1275      C1276   1.404       .  A
C1275      C1282   1.445       .  S
C1276      C1277   1.400       .  A
C1277      C1278   1.397       .  A
C1277      H1280   1.084       .  S
C1278      C1281   1.444       .  S
C1281      N1283   1.157       .  T
C1282      N1284   1.157       .  T
C1285      C1286   1.405       .  A
C1285      C1290   1.419       .  A
C1286      C1287   1.409       .  A
C1286      H1291   1.084       .  S
C1287      C1288   1.412       .  A
C1287      C1294   1.444       .  S
C1288      C1289   1.401       .  A
C1289      C1290   1.404       .  A
C1289      H1292   1.085       .  S
C1290      C1293   1.445       .  S
C1293      N1295   1.157       .  T
C1294      N1296   1.157       .  T
C1297      C1298   1.400       .  A
C1297      C1302   1.413       .  A
C1298      C1299   1.391       .  A
C1298      H1303   1.085       .  S
C1299      C1300   1.407       .  A
C1299      C1306   1.444       .  S
C1300      C1301   1.400       .  A
C1301      C1302   1.396       .  A
C1301      H1304   1.085       .  S
C1302      C1305   1.445       .  S
C1305      N1307   1.158       .  T
C1306      N1308   1.157       .  T
C1309      C1310   1.409       .  A
C1309      C1314   1.417       .  A
C1310      C1311   1.400       .  A
C1310      H1315   1.084       .  S
C1311      C1312   1.413       .  A
C1311      C1318   1.444       .  S
C1312      C1313   1.405       .  A
C1313      C1314   1.395       .  A
C1313      H1316   1.085       .  S
C1314      C1317   1.444       .  S
C1317      N1319   1.157       .  T
C1318      N1320   1.157       .  T
C1321      C1322   1.406       .  A
C1321      C1326   1.415       .  A
C1322      C1323   1.391       .  A
C1322      H1327   1.085       .  S
C1323      C1324   1.406       .  A
C1323      C1330   1.446       .  S
C1324      C1325   1.403       .  A
C1325      C1326   1.401       .  A
C1325      H1328   1.085       .  S
C1326      C1329   1.444       .  S
C1329      N1331   1.157       .  T
C1330      N1332   1.157       .  T
C1333      C1334   1.405       .  A
C1333      C1338   1.406       .  A
C1334      C1335   1.407       .  A
C1334      H1339   1.085       .  S
C1335      C1336   1.415       .  A
C1335      C1342   1.443       .  S
C1336      C1337   1.410       .  A
C1337      C1338   1.392       .  A
C1337      H1340   1.085       .  S
C1338      C1341   1.446       .  S
C1341      N1343   1.157       .  T
C1342      N1344   1.157       .  T
C1345      C1346   1.410       .  A
C1345      C1350   1.414       .  A
C1346      C1347   1.397       .  A
C1346      H1351   1.082       .  S
C1347      C1348   1.417       .  A
C1347      C1354   1.446       .  S
C1348      C1349   1.414       .  A
C1349      C1350   1.413       .  A
C1349      H1352   1.084       .  S
C1350      C1353   1.441       .  S
C1353      N1355   1.157       .  T
C1354      N1356   1.157       .  T
C1357      C1358   1.402       .  A
C1357      C1362   1.420       .  A
C1358      C1359   1.408       .  A
C1358      H1363   1.085       .  S
C1359      C1360   1.424       .  A
C1359      C1366   1.444       .  S
C1360      C1361   1.402       .  A
C1361      C1362   1.403       .  A
C1361      H1364   1.085       .  S
C1362      C1365   1.444       .  S
C1365      N1367   1.157       .  T
C1366      N1368   1.157       .  T
C1369      C1370   1.402       .  A
C1369      C1374   1.407       .  A
C1370      C1371   1.400       .  A
C1370      H1375   1.085       .  S
C1371      C1372   1.412       .  A
C1371      C1378   1.444       .  S
C1372      C1373   1.404       .  A
C1373      C1374   1.394       .  A
C1373      H1376   1.085       .  S
C1374      C1377   1.446       .  S
C1377      N1379   1.157       .  T
C1378      N1380   1.157       .  T
C1381      C1382   1.409       .  A
C1381      C1386   1.416       .  A
C1382      C1383   1.391       .  A
C1382      H1387   1.085       .  S
C1383      C1384   1.403       .  A
C1383      C1390   1.444   1_655  S
C1384      C1385   1.406       .  A
C1385      C1386   1.407       .  A
C1385      H1388   1.085       .  S
C1386      C1389   1.442       .  S
C1389      N1391   1.157       .  T
C1390      N1392   1.157       .  T
C1393      C1394   1.419       .  A
C1393      C1398   1.413       .  A
C1394      C1395   1.409       .  A
C1394      H1399   1.084       .  S
C1395      C1396   1.410       .  A
C1395      C1402   1.444       .  S
C1396      C1397   1.412       .  A
C1397      C1398   1.399       .  A
C1397      H1400   1.085       .  S
C1398      C1401   1.444       .  S
C1401      N1403   1.157       .  T
C1402      N1404   1.158       .  T
C1405      C1406   1.401       .  A
C1405      C1410   1.418       .  A
C1406      C1407   1.406       .  A
C1406      H1411   1.085       .  S
C1407      C1408   1.420       .  A
C1407      C1414   1.445   1_655  S
C1408      C1409   1.401       .  A
C1409      C1410   1.408       .  A
C1409      H1412   1.085       .  S
C1410      C1413   1.444       .  S
C1413      N1415   1.157       .  T
C1414      N1416   1.157       .  T
C1417      C1418   1.408       .  A
C1417      C1422   1.417       .  A
C1418      C1419   1.390       .  A
C1418      H1423   1.085   1_655  S
C1419      C1420   1.403       .  A
C1419      C1426   1.445       .  S
C1420      C1421   1.401       .  A
C1421      C1422   1.400       .  A
C1421      H1424   1.085       .  S
C1422      C1425   1.444       .  S
C1425      N1427   1.157       .  T
C1426      N1428   1.157       .  T
C1429      C1430   1.403       .  A
C1429      C1434   1.411       .  A
C1430      C1431   1.388       .  A
C1430      H1435   1.085       .  S
C1431      C1432   1.419       .  A
C1431      C1438   1.448       .  S
C1432      C1433   1.408       .  A
C1433      C1434   1.403       .  A
C1433      H1436   1.084       .  S
C1434      C1437   1.441       .  S
C1437      N1439   1.157       .  T
C1438      N1440   1.158       .  T
C1441      C1442   1.407       .  A
C1441      C1446   1.427   1_655  A
C1442      C1443   1.414       .  A
C1442      H1447   1.084       .  S
C1443      C1444   1.425       .  A
C1443      C1450   1.443       .  S
C1444      C1445   1.403       .  A
C1445      C1446   1.402   1_655  A
C1445      H1448   1.085       .  S
C1446      C1449   1.446       .  S
C1449      N1451   1.158       .  T
C1450      N1452   1.157       .  T
C1453      C1454   1.404       .  A
C1453      C1458   1.424       .  A
C1454      C1455   1.404       .  A
C1454      H1459   1.085       .  S
C1455      C1456   1.419       .  A
C1455      C1462   1.445       .  S
C1456      C1457   1.404       .  A
C1457      C1458   1.411       .  A
C1457      H1460   1.084       .  S
C1458      C1461   1.444       .  S
C1461      N1463   1.157       .  T
C1462      N1464   1.157       .  T
C1465      C1466   1.408       .  A
C1465      C1470   1.412       .  A
C1466      C1467   1.396       .  A
C1466      H1471   1.084       .  S
C1467      C1468   1.411       .  A
C1467      C1474   1.443       .  S
C1468      C1469   1.407       .  A
C1469      C1470   1.394       .  A
C1469      H1472   1.083       .  S
C1470      C1473   1.444   1_455  S
C1473      N1475   1.157       .  T
C1474      N1476   1.157       .  T
C1477      C1478   1.391       .  A
C1477      C1482   1.411       .  A
C1478      C1479   1.391       .  A
C1478      H1483   1.086       .  S
C1479      C1480   1.424       .  A
C1479      C1486   1.445       .  S
C1480      C1481   1.404       .  A
C1481      C1482   1.402       .  A
C1481      H1484   1.085       .  S
C1482      C1485   1.443       .  S
C1485      N1487   1.157       .  T
C1486      N1488   1.157       .  T
C1489      C1490   1.404       .  A
C1489      C1494   1.409       .  A
C1490      C1491   1.398       .  A
C1490      H1495   1.085   1_655  S
C1491      C1492   1.406       .  A
C1491      C1498   1.442       .  S
C1492      C1493   1.404       .  A
C1493      C1494   1.401       .  A
C1493      H1496   1.085       .  S
C1494      C1497   1.444       .  S
C1497      N1499   1.157       .  T
C1498      N1500   1.157       .  T
C1501      C1502   1.417       .  A
C1501      C1506   1.415       .  A
C1502      C1503   1.406       .  A
C1502      H1507   1.084       .  S
C1503      C1504   1.415       .  A
C1503      C1510   1.445       .  S
C1504      C1505   1.417       .  A
C1505      C1506   1.413       .  A
C1505      H1508   1.084       .  S
C1506      C1509   1.442       .  S
C1509      N1511   1.157       .  T
C1510      N1512   1.158       .  T
C1513      C1514   1.407       .  A
C1513      C1518   1.417       .  A
C1514      C1515   1.413       .  A
C1514      H1519   1.084       .  S
C1515      C1516   1.417       .  A
C1515      C1522   1.444       .  S
C1516      C1517   1.399       .  A
C1517      C1518   1.399       .  A
C1517      H1520   1.082       .  S
C1518      C1521   1.445   1_655  S
C1521      N1523   1.157       .  T
C1522      N1524   1.157       .  T
C1525      C1526   1.404       .  A
C1525      C1530   1.413       .  A
C1526      C1527   1.394       .  A
C1526      H1531   1.084       .  S
C1527      C1528   1.418       .  A
C1527      C1534   1.445       .  S
C1528      C1529   1.407       .  A
C1529      C1530   1.396       .  A
C1529      H1532   1.085       .  S
C1530      C1533   1.444   1_455  S
C1533      N1535   1.157       .  T
C1534      N1536   1.157       .  T
C1537      C1538   1.408       .  A
C1537      C1542   1.418       .  A
C1538      C1539   1.398       .  A
C1538      H1543   1.084       .  S
C1539      C1540   1.408       .  A
C1539      C1546   1.446       .  S
C1540      C1541   1.397       .  A
C1541      C1542   1.396       .  A
C1541      H1544   1.086       .  S
C1542      C1545   1.444       .  S
C1545      N1547   1.157       .  T
C1546      N1548   1.158       .  T
C1549      C1550   1.400       .  A
C1549      C1554   1.412       .  A
C1550      C1551   1.394       .  A
C1550      H1555   1.085       .  S
C1551      C1552   1.408       .  A
C1551      C1558   1.446       .  S
C1552      C1553   1.398       .  A
C1553      C1554   1.396       .  A
C1553      H1556   1.085       .  S
C1554      C1557   1.444   1_655  S
C1557      N1559   1.157       .  T
C1558      N1560   1.157       .  T
C1561      C1562   1.408       .  A
C1561      C1566   1.409       .  A
C1562      C1563   1.400       .  A
C1562      H1567   1.085       .  S
C1563      C1564   1.411       .  A
C1563      C1570   1.443       .  S
C1564      C1565   1.412       .  A
C1565      C1566   1.407       .  A
C1565      H1568   1.085       .  S
C1566      C1569   1.443       .  S
C1569      N1571   1.157       .  T
C1570      N1572   1.157       .  T
C1573      C1574   1.412       .  A
C1573      C1578   1.414       .  A
C1574      C1575   1.409       .  A
C1574      H1579   1.081       .  S
C1575      C1576   1.411       .  A
C1575      C1582   1.443       .  S
C1576      C1577   1.414   1_655  A
C1577      C1578   1.405   1_455  A
C1577      H1580   1.085       .  S
C1578      C1581   1.445       .  S
C1581      N1583   1.158       .  T
C1582      N1584   1.157       .  T
C1585      C1586   1.404       .  A
C1585      C1590   1.414       .  A
C1586      C1587   1.385       .  A
C1586      H1591   1.085       .  S
C1587      C1588   1.417       .  A
C1587      C1594   1.447       .  S
C1588      C1589   1.407       .  A
C1589      C1590   1.403       .  A
C1589      H1592   1.084       .  S
C1590      C1593   1.442       .  S
C1593      N1595   1.157       .  T
C1594      N1596   1.157       .  T
C1597      C1598   1.398       .  A
C1597      C1602   1.410       .  A
C1598      C1599   1.392       .  A
C1598      H1603   1.086       .  S
C1599      C1600   1.421       .  A
C1599      C1606   1.446       .  S
C1600      C1601   1.406       .  A
C1601      C1602   1.400       .  A
C1601      H1604   1.082       .  S
C1602      C1605   1.444       .  S
C1605      N1607   1.157       .  T
C1606      N1608   1.158       .  T
C1609      C1610   1.405       .  A
C1609      C1614   1.424       .  A
C1610      C1611   1.412       .  A
C1610      H1615   1.084       .  S
C1611      C1612   1.419       .  A
C1611      C1618   1.444       .  S
C1612      C1613   1.400       .  A
C1613      C1614   1.403       .  A
C1613      H1616   1.083       .  S
C1614      C1617   1.446       .  S
C1617      N1619   1.158   1_545  T
C1618      N1620   1.157       .  T
C1621      C1622   1.402       .  A
C1621      C1626   1.420       .  A
C1622      C1623   1.409       .  A
C1622      H1627   1.085       .  S
C1623      C1624   1.423       .  A
C1623      C1630   1.443       .  S
C1624      C1625   1.404       .  A
C1625      C1626   1.400       .  A
C1625      H1628   1.085       .  S
C1626      C1629   1.446       .  S
C1629      N1631   1.157       .  T
C1630      N1632   1.157       .  T
C1633      C1634   1.395       .  A
C1633      C1638   1.410       .  A
C1634      C1635   1.392       .  A
C1634      H1639   1.086       .  S
C1635      C1636   1.426       .  A
C1635      C1642   1.447       .  S
C1636      C1637   1.409       .  A
C1637      C1638   1.404       .  A
C1637      H1640   1.084       .  S
C1638      C1641   1.443       .  S
C1641      N1643   1.157       .  T
C1642      N1644   1.158       .  T
C1645      C1646   1.401       .  A
C1645      C1650   1.415       .  A
C1646      C1647   1.397       .  A
C1646      H1651   1.085       .  S
C1647      C1648   1.411       .  A
C1647      C1654   1.438       .  S
C1648      C1649   1.401       .  A
C1649      C1650   1.400       .  A
C1649      H1652   1.085       .  S
C1650      C1653   1.444       .  S
C1653      N1655   1.157       .  T
C1654      N1656   1.155       .  T
C1657      C1658   1.413       .  A
C1657      C1662   1.409       .  A
C1658      C1659   1.403       .  A
C1658      H1663   1.085       .  S
C1659      C1660   1.412       .  A
C1659      C1666   1.444       .  S
C1660      C1661   1.416       .  A
C1661      C1662   1.408       .  A
C1661      H1664   1.084       .  S
C1662      C1665   1.443       .  S
C1665      N1667   1.157       .  T
C1666      N1668   1.157       .  T
C1669      C1670   1.403       .  A
C1669      C1674   1.420       .  A
C1670      C1671   1.408       .  A
C1670      H1675   1.084       .  S
C1671      C1672   1.418       .  A
C1671      C1678   1.444       .  S
C1672      C1673   1.400       .  A
C1673      C1674   1.400       .  A
C1673      H1676   1.085       .  S
C1674      C1677   1.446       .  S
C1677      N1679   1.157       .  T
C1678      N1680   1.157       .  T
C1681      C1682   1.400       .  A
C1681      C1686   1.413       .  A
C1682      C1683   1.396       .  A
C1682      H1687   1.085       .  S
C1683      C1684   1.409       .  A
C1683      C1690   1.445       .  S
C1684      C1685   1.398       .  A
C1685      C1686   1.398       .  A
C1685      H1688   1.085       .  S
C1686      C1689   1.445       .  S
C1689      N1691   1.157       .  T
C1690      N1692   1.157       .  T
C1693      C1694   1.406       .  A
C1693      C1698   1.413       .  A
C1694      C1695   1.394       .  A
C1694      H1699   1.084       .  S
C1695      C1696   1.404       .  A
C1695      C1702   1.446       .  S
C1696      C1697   1.400       .  A
C1697      C1698   1.396       .  A
C1697      H1700   1.086       .  S
C1698      C1701   1.444       .  S
C1701      N1703   1.157       .  T
C1702      N1704   1.157       .  T
C1705      C1706   1.410       .  A
C1705      C1710   1.415       .  A
C1706      C1707   1.398       .  A
C1706      H1711   1.085       .  S
C1707      C1708   1.409       .  A
C1707      C1714   1.444       .  S
C1708      C1709   1.412       .  A
C1709      C1710   1.410       .  A
C1709      H1712   1.083       .  S
C1710      C1713   1.444       .  S
C1713      N1715   1.158       .  T
C1714      N1716   1.157       .  T
C1717      C1718   1.402       .  A
C1717      C1722   1.424       .  A
C1718      C1719   1.398       .  A
C1718      H1723   1.085       .  S
C1719      C1720   1.418       .  A
C1719      C1726   1.445       .  S
C1720      C1721   1.404       .  A
C1721      C1722   1.409       .  A
C1721      H1724   1.085       .  S
C1722      C1725   1.445       .  S
C1725      N1727   1.158       .  T
C1726      N1728   1.157       .  T
C1729      C1730   1.410       .  A
C1729      C1734   1.413       .  A
C1730      C1731   1.390       .  A
C1730      H1735   1.085       .  S
C1731      C1732   1.405       .  A
C1731      C1738   1.446       .  S
C1732      C1733   1.405       .  A
C1733      C1734   1.403       .  A
C1733      H1736   1.085       .  S
C1734      C1737   1.443       .  S
C1737      N1739   1.157       .  T
C1738      N1740   1.157       .  T
C1741      C1742   1.406       .  A
C1741      C1746   1.418       .  A
C1742      C1743   1.391       .  A
C1742      H1747   1.085       .  S
C1743      C1744   1.415       .  A
C1743      C1750   1.445       .  S
C1744      C1745   1.402       .  A
C1745      C1746   1.401       .  A
C1745      H1748   1.082       .  S
C1746      C1749   1.442       .  S
C1749      N1751   1.157       .  T
C1750      N1752   1.157       .  T
C1753      C1754   1.412       .  A
C1753      C1758   1.410       .  A
C1754      C1755   1.409       .  A
C1754      H1759   1.085       .  S
C1755      C1756   1.414       .  A
C1755      C1762   1.444   1_655  S
C1756      C1757   1.410       .  A
C1757      C1758   1.395       .  A
C1757      H1760   1.082       .  S
C1758      C1761   1.446       .  S
C1761      N1763   1.157       .  T
C1762      N1764   1.158       .  T
C1765      C1766   1.406       .  A
C1765      C1770   1.418       .  A
C1766      C1767   1.411       .  A
C1766      H1771   1.084       .  S
C1767      C1768   1.417       .  A
C1767      C1774   1.444       .  S
C1768      C1769   1.397       .  A
C1769      C1770   1.398       .  A
C1769      H1772   1.081       .  S
C1770      C1773   1.445       .  S
C1773      N1775   1.157       .  T
C1774      N1776   1.157       .  T
C1777      C1778   1.405   1_565  A
C1777      C1782   1.411       .  A
C1778      C1779   1.397       .  A
C1778      H1783   1.080       .  S
C1779      C1780   1.415   1_545  A
C1779      C1786   1.444       .  S
C1780      C1781   1.407       .  A
C1781      C1782   1.397       .  A
C1781      H1784   1.084       .  S
C1782      C1785   1.444       .  S
C1785      N1787   1.157       .  T
C1786      N1788   1.158       .  T
C1789      C1790   1.409       .  A
C1789      C1794   1.420       .  A
C1790      C1791   1.390       .  A
C1790      H1795   1.083       .  S
C1791      C1792   1.407       .  A
C1791      C1798   1.446       .  S
C1792      C1793   1.400       .  A
C1793      C1794   1.400       .  A
C1793      H1796   1.086       .  S
C1794      C1797   1.442       .  S
C1797      N1799   1.157       .  T
C1798      N1800   1.157       .  T
C1801      C1802   1.404       .  A
C1801      C1806   1.418       .  A
C1802      C1803   1.399       .  A
C1802      H1807   1.085       .  S
C1803      C1804   1.408       .  A
C1803      C1810   1.445       .  S
C1804      C1805   1.395       .  A
C1805      C1806   1.395       .  A
C1805      H1808   1.086       .  S
C1806      C1809   1.444       .  S
C1809      N1811   1.157       .  T
C1810      N1812   1.157       .  T
C1813      C1814   1.402       .  A
C1813      C1818   1.423       .  A
C1814      C1815   1.408       .  A
C1814      H1819   1.085       .  S
C1815      C1816   1.427       .  A
C1815      C1822   1.445       .  S
C1816      C1817   1.401       .  A
C1817      C1818   1.400       .  A
C1817      H1820   1.085       .  S
C1818      C1821   1.446       .  S
C1821      N1823   1.157   1_545  T
C1822      N1824   1.158       .  T
C1825      C1826   1.415       .  A
C1825      C1830   1.413       .  A
C1826      C1827   1.403       .  A
C1826      H1831   1.084       .  S
C1827      C1828   1.413       .  A
C1827      C1834   1.445       .  S
C1828      C1829   1.416       .  A
C1829      C1830   1.413       .  A
C1829      H1832   1.084       .  S
C1830      C1833   1.443       .  S
C1833      N1835   1.157       .  T
C1834      N1836   1.158       .  T
C1837      C1838   1.405       .  A
C1837      C1842   1.411   1_565  A
C1838      C1839   1.396       .  A
C1838      H1843   1.085       .  S
C1839      C1840   1.414       .  A
C1839      C1846   1.444       .  S
C1840      C1841   1.407   1_565  A
C1841      C1842   1.399       .  A
C1841      H1844   1.083       .  S
C1842      C1845   1.444       .  S
C1845      N1847   1.157       .  T
C1846      N1848   1.157       .  T
C1849      C1850   1.397       .  A
C1849      C1854   1.411       .  A
C1850      C1851   1.394       .  A
C1850      H1855   1.085       .  S
C1851      C1852   1.409       .  A
C1851      C1858   1.445       .  S
C1852      C1853   1.401       .  A
C1853      C1854   1.400       .  A
C1853      H1856   1.085       .  S
C1854      C1857   1.445       .  S
C1857      N1859   1.157       .  T
C1858      N1860   1.157       .  T
C1861      C1862   1.405       .  A
C1861      C1866   1.417       .  A
C1862      C1863   1.394       .  A
C1862      H1867   1.085       .  S
C1863      C1864   1.407       .  A
C1863      C1870   1.442       .  S
C1864      C1865   1.400       .  A
C1865      C1866   1.396       .  A
C1865      H1868   1.086       .  S
C1866      C1869   1.444       .  S
C1869      N1871   1.157       .  T
C1870      N1872   1.156       .  T
C1873      C1874   1.412       .  A
C1873      C1878   1.417       .  A
C1874      C1875   1.401       .  A
C1874      H1879   1.082       .  S
C1875      C1876   1.411       .  A
C1875      C1882   1.445       .  S
C1876      C1877   1.412       .  A
C1877      C1878   1.414       .  A
C1877      H1880   1.084       .  S
C1878      C1881   1.442       .  S
C1881      N1883   1.157       .  T
C1882      N1884   1.157       .  T
C1885      C1886   1.401       .  A
C1885      C1890   1.421       .  A
C1886      C1887   1.404       .  A
C1886      H1891   1.085       .  S
C1887      C1888   1.422       .  A
C1887      C1894   1.444       .  S
C1888      C1889   1.406       .  A
C1889      C1890   1.412       .  A
C1889      H1892   1.084       .  S
C1890      C1893   1.445       .  S
C1893      N1895   1.158       .  T
C1894      N1896   1.157       .  T
C1897      C1898   1.406   1_556  A
C1897      C1902   1.418       .  A
C1898      C1899   1.397       .  A
C1898      H1903   1.085       .  S
C1899      C1900   1.414       .  A
C1899      C1906   1.444       .  S
C1900      C1901   1.402   1_554  A
C1901      C1902   1.393       .  A
C1901      H1904   1.081       .  S
C1902      C1905   1.445       .  S
C1905      N1907   1.158       .  T
C1906      N1908   1.157       .  T
C1909      C1910   1.406       .  A
C1909      C1914   1.422       .  A
C1910      C1911   1.400       .  A
C1910      H1915   1.084       .  S
C1911      C1912   1.410       .  A
C1911      C1918   1.441       .  S
C1912      C1913   1.399       .  A
C1913      C1914   1.392       .  A
C1913      H1916   1.086       .  S
C1914      C1917   1.446       .  S
C1917      N1919   1.158   1_554  T
C1918      N1920   1.156       .  T
C1921      C1922   1.403       .  A
C1921      C1926   1.405       .  A
C1922      C1923   1.402       .  A
C1922      H1927   1.085       .  S
C1923      C1924   1.417       .  A
C1923      C1930   1.444       .  S
C1924      C1925   1.409       .  A
C1925      C1926   1.386       .  A
C1925      H1928   1.084       .  S
C1926      C1929   1.447       .  S
C1929      N1931   1.157       .  T
C1930      N1932   1.158       .  T
C1933      C1934   1.406       .  A
C1933      C1938   1.420       .  A
C1934      C1935   1.410       .  A
C1934      H1939   1.084   1_655  S
C1935      C1936   1.419       .  A
C1935      C1942   1.444       .  S
C1936      C1937   1.403       .  A
C1937      C1938   1.403       .  A
C1937      H1940   1.085       .  S
C1938      C1941   1.445       .  S
C1941      N1943   1.157       .  T
C1942      N1944   1.157       .  T
C1945      C1946   1.409       .  A
C1945      C1950   1.414       .  A
C1946      C1947   1.403       .  A
C1946      H1951   1.085       .  S
C1947      C1948   1.415       .  A
C1947      C1954   1.444       .  S
C1948      C1949   1.414       .  A
C1949      C1950   1.410       .  A
C1949      H1952   1.082       .  S
C1950      C1953   1.444   1_655  S
C1953      N1955   1.158       .  T
C1954      N1956   1.157       .  T
C1957      C1958   1.407   1_554  A
C1957      C1962   1.415       .  A
C1958      C1959   1.396       .  A
C1958      H1963   1.081       .  S
C1959      C1960   1.415       .  A
C1959      C1966   1.444       .  S
C1960      C1961   1.404   1_556  A
C1961      C1962   1.397       .  A
C1961      H1964   1.085       .  S
C1962      C1965   1.441       .  S
C1965      N1967   1.156       .  T
C1966      N1968   1.157       .  T
C1969      C1970   1.410       .  A
C1969      C1974   1.411       .  A
C1970      C1971   1.394       .  A
C1970      H1975   1.085       .  S
C1971      C1972   1.401       .  A
C1971      C1978   1.445       .  S
C1972      C1973   1.402       .  A
C1973      C1974   1.399       .  A
C1973      H1976   1.086       .  S
C1974      C1977   1.442       .  S
C1977      N1979   1.157       .  T
C1978      N1980   1.157       .  T
C1981      C1982   1.409       .  A
C1981      C1986   1.418       .  A
C1982      C1983   1.393       .  A
C1982      H1987   1.084       .  S
C1983      C1984   1.413       .  A
C1983      C1990   1.447       .  S
C1984      C1985   1.403       .  A
C1985      C1986   1.403       .  A
C1985      H1988   1.085       .  S
C1986      C1989   1.442       .  S
C1989      N1991   1.157       .  T
C1990      N1992   1.158       .  T
C1993      C1994   1.413       .  A
C1993      C1998   1.411       .  A
C1994      C1995   1.394       .  A
C1994      H1999   1.083       .  S
C1995      C1996   1.411       .  A
C1995      C2002   1.446       .  S
C1996      C1997   1.416       .  A
C1997      C1998   1.409       .  A
C1997      H2000   1.084       .  S
C1998      C2001   1.443       .  S
C2001      N2003   1.157       .  T
C2002      N2004   1.157       .  T
C2005      C2006   1.402       .  A
C2005      C2010   1.422       .  A
C2006      C2007   1.401       .  A
C2006      H2011   1.085       .  S
C2007      C2008   1.417       .  A
C2007      C2014   1.446       .  S
C2008      C2009   1.397       .  A
C2009      C2010   1.401       .  A
C2009      H2012   1.085       .  S
C2010      C2013   1.444       .  S
C2013      N2015   1.157       .  T
C2014      N2016   1.157       .  T
