geometry optimzed in LAMMPS
_audit_creation_date              2020-11-30 
_audit_creation_method            'lammps2cif' 
_symmetry_space_group_name_H-M    'P1' 
_symmetry_Int_Tables_number       1 
_symmetry_cell_setting            triclinic 
loop_ 
_symmetry_equiv_pos_as_xyz 
  x,y,z 
_cell_length_a                    49.25641290485071 
_cell_length_b                    49.2429075077729 
_cell_length_c                    25.64359378815783 
_cell_angle_alpha                 89.9400738160769 
_cell_angle_beta                  89.89882151614046 
_cell_angle_gamma                 120.35125255449341 
loop_ 
_atom_site_label 
_atom_site_type_symbol 
_atom_site_fract_x 
_atom_site_fract_y 
_atom_site_fract_z 
_atom_site_charge 
C1          C  0.41027888  0.09068908  0.25012645     0.04350
C2          C  0.40281209  0.10022212  0.29738210    -0.11800
C3          C  0.38582862  0.11602785  0.29723785     0.01850
C4          C  0.37712653  0.12355768  0.24999452    -0.10330
C5          C  0.38477759  0.11485694  0.20284842     0.04340
C6          C  0.40070052  0.09801593  0.20284452    -0.09750
H7          H  0.41029371  0.09572763  0.33443802     0.09940
H8          H  0.36438020  0.13620316  0.24991780     0.07470
H9          H  0.40523130  0.09050826  0.16582525     0.07310
C10         C  0.40881636  0.33542190  0.24962137     0.04350
C11         C  0.40051114  0.31830503  0.20247770    -0.11800
C12         C  0.38370798  0.28532872  0.20301063     0.01850
C13         C  0.37574957  0.26911213  0.25044064    -0.10330
C14         C  0.38410062  0.28565925  0.29742166     0.04340
C15         C  0.40009340  0.31858269  0.29712491    -0.09750
H16         H  0.40735057  0.33039699  0.16529369     0.09940
H17         H  0.36309472  0.24358212  0.25079077     0.07470
H18         H  0.40541640  0.33085932  0.33404116     0.07310
O19         O  0.26990861  0.15798750  0.04308706    -0.84130
O20         O  0.32511924  0.21129803  0.06865010    -0.81170
C21         C  0.35424606  0.22939688  0.07425532     0.99330
O22         O  0.37366042  0.22887118  0.04258678    -0.81210
O23         O  0.37106285  0.17338283  0.06731646    -0.83850
C24         C  0.35968159  0.14419194  0.07257231     1.03860
O25         O  0.33999018  0.12501474  0.04023483    -0.76610
O26         O  0.28680798  0.12615284  0.06634023    -0.76800
C27         C  0.26911677  0.13732663  0.07344788     1.03810
O28         O  0.28718834  0.17433113  0.43343067    -0.84120
O29         O  0.33965368  0.22992309  0.45969782    -0.81190
C30         C  0.35988647  0.23115098  0.42791076     0.99350
O31         O  0.37174732  0.21393540  0.43366995    -0.81220
O32         O  0.37502448  0.16156131  0.45859997    -0.83820
C33         C  0.35594269  0.14130580  0.42684739     1.03830
O34         O  0.32670753  0.12934898  0.43253404    -0.76640
O35         O  0.27081897  0.12570387  0.45791908    -0.76790
C36         C  0.26971023  0.14517351  0.42706382     1.03790
Cr37       Cr  0.30637698  0.19099797  0.00140102     1.93740
Cr38       Cr  0.37002294  0.19323644  0.50056091     1.93210
Cr39       Cr  0.30747232  0.13036824  0.49965972     1.39100
O40         O  0.32829697  0.17209667  0.50031562    -1.21880
C41         C  0.16438798  0.08802038  0.25094652     0.04350
C42         C  0.18137956  0.09903742  0.29799343    -0.11800
C43         C  0.21432854  0.11485659  0.29791543     0.01850
C44         C  0.23074948  0.12091616  0.25088186    -0.10330
C45         C  0.21440210  0.11065215  0.20391737     0.04340
C46         C  0.18149381  0.09368638  0.20396329    -0.09750
H47         H  0.16930561  0.09583789  0.33476584     0.09940
H48         H  0.25627380  0.13371715  0.25081700     0.07470
H49         H  0.16954421  0.08494792  0.16714003     0.07310
O50         O  0.14966235  0.28216984  0.45919412    -0.84130
O51         O  0.20233805  0.33799815  0.43353103    -0.81130
C52         C  0.21980150  0.36721648  0.42746164     0.99330
O53         O  0.21875462  0.38643723  0.45886716    -0.81210
O54         O  0.16321196  0.38317650  0.43309651    -0.83850
C55         C  0.13403489  0.37131928  0.42707010     1.03860
O56         O  0.11466989  0.35084437  0.45846117    -0.76610
O57         O  0.11779044  0.29840932  0.43318753    -0.76800
C58         C  0.12945939  0.28101007  0.42755569     1.03810
O59         O  0.16162136  0.29815955  0.06782618    -0.84120
O60         O  0.21780508  0.35055843  0.04236341    -0.81190
C61         C  0.21906573  0.37097171  0.07366679     0.99350
O62         O  0.20182287  0.38277501  0.06762303    -0.81220
O63         O  0.14960408  0.38604313  0.04183692    -0.83820
C64         C  0.12901664  0.36670815  0.07312704     1.03830
O65         O  0.11696525  0.33751079  0.06697081    -0.76640
O66         O  0.11342209  0.28184294  0.04145131    -0.76790
C67         C  0.13235082  0.28087276  0.07354615     1.03790
Cr68       Cr  0.18095264  0.31857523  0.00070490     1.93740
Cr69       Cr  0.18164066  0.38131266  0.00039278     1.93210
Cr70       Cr  0.11871981  0.31880104  0.99988972     1.39100
O71         O  0.16044793  0.33957743  0.00030696    -1.21880
C72         C  0.07912838  0.42118038  0.25041641     0.04350
C73         C  0.08785825  0.41304947  0.20305482    -0.11800
C74         C  0.10392617  0.39634593  0.20307793     0.01850
C75         C  0.11225112  0.38834197  0.25024753    -0.10330
C76         C  0.10422661  0.39657272  0.29751544     0.04340
C77         C  0.08738063  0.41251037  0.29771079    -0.09750
H78         H  0.08256004  0.41989298  0.16602945     0.09940
H79         H  0.12499532  0.37569391  0.25017040     0.07470
H80         H  0.08052792  0.41775593  0.33478926     0.07310
C81         C  0.32448314  0.42120507  0.24954733     0.04350
C82         C  0.30741280  0.41239644  0.20239926    -0.11800
C83         C  0.27447838  0.39660589  0.20285939     0.01850
C84         C  0.25821398  0.38869187  0.25024742    -0.10330
C85         C  0.27470606  0.39685407  0.29727325     0.04340
C86         C  0.30763882  0.41340723  0.29703323    -0.09750
H87         H  0.31951138  0.41740152  0.16525176     0.09940
H88         H  0.23269239  0.37612775  0.25053025     0.07470
H89         H  0.31992771  0.42035358  0.33393688     0.07310
C90         C  0.07741792  0.17586920  0.25074023     0.04350
C91         C  0.08755972  0.19287467  0.29803697    -0.11800
C92         C  0.10340195  0.22583030  0.29813795     0.01850
C93         C  0.11080541  0.24238752  0.25114676    -0.10330
C94         C  0.10168125  0.22617612  0.20397886     0.04340
C95         C  0.08433954  0.19325788  0.20372055    -0.09750
H96         H  0.08367949  0.18096623  0.33507471     0.09940
H97         H  0.12373939  0.26792001  0.25128351     0.07470
H98         H  0.07638876  0.18170283  0.16647753     0.07310
C99         C  0.47795046  0.02223969  0.24935452     0.03510
C100        C  0.01119881  0.03890444  0.24832600     0.03510
C101        C  0.02770984  0.02228517  0.24825750     0.03510
C102        C  0.01099528  0.48913891  0.25018278     0.03510
C103        C  0.47771385  0.47220989  0.24949758     0.03510
C104        C  0.46114196  0.48880378  0.24938020     0.03510
C105        C  0.04222468  0.09101287  0.20380720    -0.12130
C106        C  0.02858437  0.07382832  0.24936760     0.10020
C107        C  0.02978358  0.08984221  0.29511139    -0.12130
C108        C  0.04484828  0.12270107  0.29540907    -0.12130
C109        C  0.06018871  0.14046504  0.25031094     0.10020
C110        C  0.05873179  0.12380794  0.20458869    -0.12130
H111        H  0.04002250  0.07902181  0.16737856     0.14010
H112        H  0.51846981  0.07676093  0.33017736     0.14010
H113        H  0.04385608  0.13378182  0.33109173     0.14010
H114        H  0.07038008  0.13567082  0.16895039     0.14010
C115        C  0.37634605  0.43427073  0.29003084    -0.12130
C116        C  0.35960375  0.43838497  0.24925374     0.10020
C117        C  0.37678882  0.45915253  0.20829315    -0.12130
C118        C  0.40962565  0.47497057  0.20785501    -0.12130
C119        C  0.42609495  0.47122039  0.24912591     0.10020
C120        C  0.40918878  0.45088894  0.29034783    -0.12130
H121        H  0.36418630  0.41800263  0.32164963     0.14010
H122        H  0.36499538  0.46360383  0.17674516     0.14010
H123        H  0.42299962  0.97947524  0.16767301     0.14010
H124        H  0.42148256  0.44773567  0.32264118     0.14010
C125        C  0.04071850  0.43459950  0.20966141    -0.12130
C126        C  0.06156408  0.43859373  0.25044028     0.10020
C127        C  0.06547617  0.45945394  0.29117219    -0.12130
C128        C  0.04872301  0.47538769  0.29147709    -0.12130
C129        C  0.02844224  0.47168081  0.25028679     0.10020
C130        C  0.02478113  0.45134315  0.20919279    -0.12130
H131        H  0.03634941  0.41829318  0.17818806     0.14010
H132        H  0.08174772  0.46386078  0.32269552     0.14010
H133        H  0.55180243  0.49065931  0.32347905     0.14010
H134        H  0.05050195  0.98922934  0.17445704     0.14010
C135        C  0.11092215  0.24360106  0.15578715    -0.12050
C136        C  0.12027425  0.25978388  0.11719038    -0.13610
C137        C  0.11204988  0.24305869  0.34638888    -0.12050
C138        C  0.11963081  0.25950183  0.38459773    -0.13610
C139        C  0.24119165  0.37886109  0.38416597    -0.12050
C140        C  0.25749135  0.38779150  0.34566110    -0.13610
C141        C  0.24051968  0.38089111  0.11671452    -0.12050
C142        C  0.25701206  0.38841168  0.15485770    -0.13610
C143        C  0.11357524  0.38859583  0.34566177    -0.12050
C144        C  0.12257509  0.38120697  0.38390555    -0.13610
C145        C  0.11924456  0.37820449  0.11639406    -0.12050
C146        C  0.11191249  0.38711867  0.15481471    -0.13610
C147        C  0.11143713  0.05416315  0.29465820    -0.12130
C148        C  0.12916903  0.07114756  0.25063895     0.10020
C149        C  0.11277872  0.07165838  0.20597560    -0.12130
C150        C  0.08000020  0.05526096  0.20499102    -0.12130
C151        C  0.06266000  0.03966196  0.24954758     0.10020
C152        C  0.07857910  0.03905157  0.29434180    -0.12130
H153        H  0.12271311  0.05204609  0.32929794     0.14010
H154        H  0.12502683  0.08472630  0.17142637     0.14010
H155        H  0.06817293  0.05450352  0.16909501     0.14010
H156        H  0.06674496  0.52096819  0.17657215     0.14010
C157        C  0.23166671  0.11833122  0.15560201    -0.12050
C158        C  0.24781160  0.12642020  0.11689240    -0.13610
C159        C  0.23167406  0.12500647  0.34596957    -0.12050
C160        C  0.24816455  0.13391352  0.38412328    -0.13610
C161        C  0.44747025  0.38755993  0.29014635    -0.12130
C162        C  0.42657616  0.37057876  0.24939065     0.10020
C163        C  0.42282955  0.38756774  0.20854852    -0.12130
C164        C  0.43976924  0.42043962  0.20816807    -0.12130
C165        C  0.46006833  0.43712949  0.24938429     0.10020
C166        C  0.46356971  0.42040207  0.29055424    -0.12130
H167        H  0.45175498  0.37560378  0.32166801     0.14010
H168        H  0.40655563  0.37559091  0.17701281     0.14010
H169        H  0.43682051  0.43292522  0.17590971     0.14010
H170        H  0.97896956  0.43325204  0.32361906     0.14010
C171        C  0.37640208  0.26854028  0.34585436    -0.12050
C172        C  0.36939222  0.25239889  0.38448423    -0.13610
C173        C  0.36557446  0.25103175  0.11713796    -0.12050
C174        C  0.37446926  0.26773246  0.15508593    -0.13610
C175        C  0.44677786  0.07520191  0.20722355    -0.12130
C176        C  0.42783078  0.07318749  0.25007081     0.10020
C177        C  0.42579960  0.05415653  0.29276188    -0.12130
C178        C  0.44248946  0.03815847  0.29286548    -0.12130
C179        C  0.46063429  0.03976159  0.24958274     0.10020
C180        C  0.46247775  0.05822421  0.20664348    -0.12130
H181        H  0.44990457  0.09012752  0.17411408     0.14010
H182        H  0.41105176  0.05116236  0.32607687     0.14010
H183        H  0.43689321  0.52040336  0.32302571     0.14010
H184        H  0.97644310  0.05992048  0.17329281     0.14010
C185        C  0.37646115  0.12369638  0.15452481    -0.12050
C186        C  0.36919887  0.13254954  0.11596076    -0.13610
C187        C  0.37682314  0.12437772  0.34543197    -0.12050
C188        C  0.36777082  0.13174415  0.38368991    -0.13610
C189        C  0.41009351  0.09052645  0.74953325     0.04350
C190        C  0.40246455  0.09977777  0.79682402    -0.11800
C191        C  0.38593742  0.11601570  0.79669493     0.01850
C192        C  0.37758107  0.12393809  0.74949080    -0.10330
C193        C  0.38529499  0.11534441  0.70229526     0.04340
C194        C  0.40108807  0.09837053  0.70221042    -0.09750
H195        H  0.40954192  0.09472390  0.83383373     0.09940
H196        H  0.36503473  0.13678401  0.74948488     0.07470
H197        H  0.40597515  0.09110587  0.66522299     0.07310
C198        C  0.40883670  0.33541622  0.75097879     0.04350
C199        C  0.40086457  0.31841332  0.70375732    -0.11800
C200        C  0.38402738  0.28545610  0.70403721     0.01850
C201        C  0.37565421  0.26910324  0.75135412    -0.10330
C202        C  0.38368865  0.28551618  0.79849347     0.04340
C203        C  0.39980687  0.31847204  0.79839929    -0.09750
H204        H  0.40798581  0.33059724  0.66667065     0.09940
H205        H  0.36292810  0.24357284  0.75149310     0.07470
H206        H  0.40496840  0.33069772  0.83535165     0.07310
O207        O  0.27043765  0.16020382  0.54181161    -0.84130
O208        O  0.32599315  0.21276625  0.56816213    -0.81170
C209        C  0.35514907  0.23043484  0.57419918     0.99330
O210        O  0.37453547  0.22973865  0.54262914    -0.81210
O211        O  0.37141651  0.17406933  0.56740548    -0.83850
C212        C  0.35967131  0.14485318  0.57294808     1.03860
O213        O  0.33942358  0.12567399  0.54127489    -0.76610
O214        O  0.28667853  0.12814191  0.56677834    -0.76800
C215        C  0.26930781  0.13979275  0.57305611     1.03810
O216        O  0.28593924  0.17245177  0.93421001    -0.84120
O217        O  0.33809838  0.22839360  0.95988586    -0.81190
C218        C  0.35867377  0.23018021  0.92823010     0.99350
O219        O  0.37094197  0.21330216  0.93381910    -0.81220
O220        O  0.37500342  0.16124424  0.95836877    -0.83820
C221        C  0.35610896  0.14111434  0.92627944     1.03830
O222        O  0.32685934  0.12897128  0.93171543    -0.76640
O223        O  0.27052732  0.12392691  0.95790222    -0.76790
C224        C  0.26896784  0.14327219  0.92739697     1.03790
Cr225      Cr  0.30741780  0.19273501  0.50075223     1.93740
Cr226      Cr  0.36951480  0.19255509  0.00052274     1.93210
Cr227      Cr  0.30758005  0.12919723  0.99908730     1.39100
O228        O  0.32779585  0.17092470  0.00032921    -1.21880
C229        C  0.16422912  0.09041140  0.75020152     0.04350
C230        C  0.18105263  0.09818112  0.79757989    -0.11800
C231        C  0.21400233  0.11452423  0.79757477     0.01850
C232        C  0.23050034  0.12257617  0.75038897    -0.10330
C233        C  0.21424230  0.11472824  0.70312620     0.04340
C234        C  0.18132730  0.09915938  0.70293779    -0.09750
H235        H  0.16873391  0.09127304  0.83456970     0.09940
H236        H  0.25601609  0.13492440  0.75044904     0.07470
H237        H  0.16925816  0.09419220  0.66586821     0.07310
O238        O  0.14878224  0.28181068  0.95903917    -0.84130
O239        O  0.20182948  0.33746530  0.93367459    -0.81130
C240        C  0.21942812  0.36667811  0.92763135     0.99330
O241        O  0.21843665  0.38595961  0.95897943    -0.81210
O242        O  0.16314556  0.38314511  0.93315652    -0.83850
C243        C  0.13400663  0.37145566  0.92700823     1.03860
O244        O  0.11451493  0.35106106  0.95832903    -0.76610
O245        O  0.11729372  0.29846726  0.93278358    -0.76800
C246        C  0.12876338  0.28088759  0.92720624     1.03810
O247        O  0.16263536  0.29856662  0.56777974    -0.84120
O248        O  0.21849396  0.35126832  0.54217952    -0.81190
C249        C  0.21954121  0.37153149  0.57360532     0.99350
O250        O  0.20217546  0.38319809  0.56753913    -0.81220
O251        O  0.14974455  0.38609084  0.54171993    -0.83820
C252        C  0.12930018  0.36674128  0.57315401     1.03830
O253        O  0.11744595  0.33755414  0.56721012    -0.76640
O254        O  0.11428052  0.28199149  0.54192179    -0.76790
C255        C  0.13341308  0.28099812  0.57356218     1.03790
Cr256      Cr  0.18171051  0.31908018  0.50065154     1.93740
Cr257      Cr  0.18188522  0.38155694  0.50031207     1.93210
Cr258      Cr  0.11921147  0.31879814  0.50019858     1.39100
O259        O  0.16093482  0.33981657  0.50038122    -1.21880
C260        C  0.07935037  0.42123130  0.75016396     0.04350
C261        C  0.08809790  0.41311666  0.70281789    -0.11800
C262        C  0.10418272  0.39643631  0.70288871     0.01850
C263        C  0.11252440  0.38846571  0.75006034    -0.10330
C264        C  0.10446926  0.39669463  0.79728387     0.04340
C265        C  0.08758682  0.41257668  0.79746027    -0.09750
H266        H  0.08279043  0.41994259  0.66578300     0.09940
H267        H  0.12529015  0.37583881  0.75001995     0.07470
H268        H  0.08069809  0.41779539  0.83453000     0.07310
C269        C  0.32451847  0.42114089  0.75017036     0.04350
C270        C  0.30751120  0.41249655  0.70295282    -0.11800
C271        C  0.27457836  0.39670511  0.70326708     0.01850
C272        C  0.25823346  0.38857855  0.75058725    -0.10330
C273        C  0.27464249  0.39653929  0.79769994     0.04340
C274        C  0.30758739  0.41312490  0.79759984    -0.09750
H275        H  0.31965519  0.41763670  0.66583621     0.09940
H276        H  0.23271202  0.37601256  0.75074886     0.07470
H277        H  0.31981133  0.41993358  0.83456729     0.07310
C278        C  0.07881017  0.17574172  0.75061629     0.04350
C279        C  0.08754789  0.19269328  0.79791008    -0.11800
C280        C  0.10342218  0.22564380  0.79772779     0.01850
C281        C  0.11150026  0.24204119  0.75046921    -0.10330
C282        C  0.10342016  0.22567970  0.70329984     0.04340
C283        C  0.08678621  0.19273065  0.70326416    -0.09750
H284        H  0.08240828  0.18048809  0.83496321     0.09940
H285        H  0.12411540  0.26757087  0.75039915     0.07470
H286        H  0.07990446  0.18054417  0.66625654     0.07310
C287        C  0.47764240  0.02215020  0.75012984     0.03510
C288        C  0.01094215  0.03899585  0.75011788     0.03510
C289        C  0.02752153  0.02241763  0.75009584     0.03510
C290        C  0.01117476  0.48903649  0.75005112     0.03510
C291        C  0.47780299  0.47221761  0.75017189     0.03510
C292        C  0.46123908  0.48881578  0.75002280     0.03510
C293        C  0.04892094  0.09101637  0.70928089    -0.12130
C294        C  0.02852423  0.07406472  0.75041417     0.10020
C295        C  0.02474551  0.09051212  0.79172691    -0.12130
C296        C  0.04063542  0.12336297  0.79146670    -0.12130
C297        C  0.06150185  0.14059616  0.75063875     0.10020
C298        C  0.06560157  0.12387549  0.70976603    -0.12130
H299        H  0.05209402  0.07874618  0.67694609     0.14010
H300        H  0.50902869  0.07785483  0.82417065     0.14010
H301        H  0.03617515  0.13513181  0.82306995     0.14010
H302        H  0.08192373  0.13606318  0.67822276     0.14010
C303        C  0.37641227  0.43428219  0.79074425    -0.12130
C304        C  0.35965872  0.43838235  0.74996378     0.10020
C305        C  0.37685816  0.45917500  0.70902776    -0.12130
C306        C  0.40969593  0.47498316  0.70857353    -0.12130
C307        C  0.42617638  0.47123461  0.74982821     0.10020
C308        C  0.40926323  0.45091023  0.79106118    -0.12130
H309        H  0.36426104  0.41800865  0.82235770     0.14010
H310        H  0.36508108  0.46365212  0.67748713     0.14010
H311        H  0.42190544  0.99047263  0.67613046     0.14010
H312        H  0.42155673  0.44776028  0.82335738     0.14010
C313        C  0.04088941  0.43455227  0.70947266    -0.12130
C314        C  0.06177725  0.43860672  0.75020112     0.10020
C315        C  0.06571338  0.45947429  0.79092759    -0.12130
C316        C  0.04892494  0.47535745  0.79128672    -0.12130
C317        C  0.02861254  0.47160201  0.75013469     0.10020
C318        C  0.02492685  0.45126049  0.70904242    -0.12130
H319        H  0.03651316  0.41823223  0.67801778     0.14010
H320        H  0.08202761  0.46392399  0.82240054     0.14010
H321        H  0.55200463  0.49082208  0.82360648     0.14010
H322        H  0.00905247  0.94819542  0.67674459     0.14010
C323        C  0.11262177  0.24305789  0.65506384    -0.12050
C324        C  0.12166229  0.25950407  0.61672685    -0.13610
C325        C  0.11149479  0.24299868  0.84587592    -0.12050
C326        C  0.11891827  0.25944217  0.88410305    -0.13610
C327        C  0.24091477  0.37827211  0.88441720    -0.12050
C328        C  0.25731992  0.38728720  0.84601385    -0.13610
C329        C  0.24085507  0.38138561  0.61685750    -0.12050
C330        C  0.25721140  0.38873753  0.65516143    -0.13610
C331        C  0.11379874  0.38876665  0.84543199    -0.12050
C332        C  0.12272542  0.38140643  0.88375554    -0.13610
C333        C  0.11947776  0.37822167  0.61633148    -0.12050
C334        C  0.11214882  0.38717577  0.65468143    -0.13610
C335        C  0.11205984  0.05235974  0.70918212    -0.12130
C336        C  0.12909580  0.07312054  0.75004919     0.10020
C337        C  0.11218824  0.07706327  0.79083468    -0.12130
C338        C  0.07933119  0.06032627  0.79118823    -0.12130
C339        C  0.06258184  0.04004025  0.74999972     0.10020
C340        C  0.07922636  0.03643657  0.70877287    -0.12130
H341        H  0.12396589  0.04798886  0.67766130     0.14010
H342        H  0.12422889  0.09328391  0.82241715     0.14010
H343        H  0.06690618  0.06336451  0.82346550     0.14010
H344        H  0.06701788  0.52085200  0.67632641     0.14010
C345        C  0.23164767  0.12260270  0.65492339    -0.12050
C346        C  0.24797259  0.12985733  0.61645597    -0.13610
C347        C  0.23123328  0.12326223  0.84585428    -0.12050
C348        C  0.24755301  0.13185621  0.88424392    -0.13610
C349        C  0.44741662  0.38760745  0.79150553    -0.12130
C350        C  0.42654791  0.37057354  0.75076522     0.10020
C351        C  0.42283671  0.38750500  0.70977941    -0.12130
C352        C  0.43981974  0.42036905  0.70918798    -0.12130
C353        C  0.46014871  0.43713117  0.75031873     0.10020
C354        C  0.46361843  0.42046978  0.79165215    -0.12130
H355        H  0.45160545  0.37566532  0.82317012     0.14010
H356        H  0.40656021  0.37548014  0.67826532     0.14010
H357        H  0.43688363  0.43279612  0.67682200     0.14010
H358        H  0.97927445  0.43308311  0.82357496     0.14010
C359        C  0.37553586  0.26819070  0.84681883    -0.12050
C360        C  0.36821659  0.25176199  0.88518154    -0.13610
C361        C  0.36649226  0.25173678  0.61751724    -0.12050
C362        C  0.37513692  0.26807879  0.65589064    -0.13610
C363        C  0.44807756  0.07658725  0.70862953    -0.12130
C364        C  0.42735012  0.07284945  0.74958630     0.10020
C365        C  0.42334298  0.05209239  0.79065050    -0.12130
C366        C  0.43996456  0.03604189  0.79115722    -0.12130
C367        C  0.46021625  0.03958307  0.74988950     0.10020
C368        C  0.46393047  0.05977085  0.70842568    -0.12130
H369        H  0.45244854  0.09278825  0.67688240     0.14010
H370        H  0.40713024  0.04790383  0.82230410     0.14010
H371        H  0.43710605  0.52039497  0.82360169     0.14010
H372        H  0.97945529  0.06296246  0.67603004     0.14010
C373        C  0.37699571  0.12430153  0.65410654    -0.12050
C374        C  0.36947443  0.13318171  0.61588840    -0.13610
C375        C  0.37705752  0.12440758  0.84487023    -0.12050
C376        C  0.36810163  0.13179438  0.88315657    -0.13610
C377        C  0.40974656  0.59002247  0.24884515     0.04350
C378        C  0.40190773  0.59909189  0.29612274    -0.11800
C379        C  0.38513257  0.61508123  0.29601731     0.01850
C380        C  0.37672849  0.62295227  0.24877333    -0.10330
C381        C  0.38466153  0.61456867  0.20153627     0.04340
C382        C  0.40072063  0.59783624  0.20149320    -0.09750
H383        H  0.40902301  0.59408907  0.33313971     0.09940
H384        H  0.36400606  0.63562075  0.24876846     0.07470
H385        H  0.40580672  0.59073595  0.16451675     0.07310
C386        C  0.41218052  0.83551339  0.24821619     0.04350
C387        C  0.40164681  0.81838282  0.20122449    -0.11800
C388        C  0.38585472  0.78542709  0.20157916     0.01850
C389        C  0.37952357  0.76915217  0.24881247    -0.10330
C390        C  0.38935711  0.78564186  0.29574720     0.04340
C391        C  0.40615245  0.81858037  0.29546405    -0.09750
H392        H  0.40513619  0.83038733  0.16429596     0.09940
H393        H  0.36676912  0.74362152  0.24906278     0.07470
H394        H  0.41447134  0.83072505  0.33226022     0.07310
O395        O  0.27031334  0.66015759  0.03989627    -0.84130
O396        O  0.32607495  0.71253198  0.06626825    -0.81170
C397        C  0.35525942  0.73004391  0.07228680     0.99330
O398        O  0.37458193  0.72910065  0.04084790    -0.81210
O399        O  0.37121467  0.67332713  0.06583066    -0.83850
C400        C  0.35919713  0.64409602  0.07178108     1.03860
O401        O  0.33873330  0.62490295  0.04038586    -0.76610
O402        O  0.28634497  0.62806842  0.06562684    -0.76800
C403        C  0.26905081  0.63983151  0.07146057     1.03810
O404        O  0.28814021  0.67383718  0.43009107    -0.84120
O405        O  0.34098653  0.72939704  0.45594273    -0.81190
C406        C  0.36195575  0.73057733  0.42588479     0.99350
O407        O  0.37331269  0.71304689  0.43300842    -0.81220
O408        O  0.37471994  0.65992839  0.45853954    -0.83820
C409        C  0.35559921  0.64007109  0.42629314     1.03830
O410        O  0.32638510  0.62843886  0.43164554    -0.76640
O411        O  0.27071124  0.62538829  0.45650338    -0.76790
C412        C  0.27014639  0.64468225  0.42463361     1.03790
Cr413      Cr  0.30745717  0.69244927  0.99890997     1.93740
Cr414      Cr  0.37022649  0.69208198  0.50008819     1.93210
Cr415      Cr  0.30715467  0.62983245  0.49845748     1.39100
O416        O  0.32851674  0.67157733  0.49866313    -1.21880
C417        C  0.16439647  0.59083870  0.24921407     0.04350
C418        C  0.18146658  0.59884655  0.29635249    -0.11800
C419        C  0.21441509  0.61534910  0.29583992     0.01850
C420        C  0.23065930  0.62329772  0.24844951    -0.10330
C421        C  0.21415301  0.61522070  0.20145914     0.04340
C422        C  0.18124445  0.59952107  0.20171311    -0.09750
H423        H  0.16935277  0.59201136  0.33352462     0.09940
H424        H  0.25617936  0.63574787  0.24813754     0.07470
H425        H  0.16899070  0.59438996  0.16480397     0.07310
O426        O  0.14952757  0.78257324  0.45814566    -0.84130
O427        O  0.20221099  0.83869372  0.43319014    -0.81130
C428        C  0.21967948  0.86797241  0.42777113     0.99330
O429        O  0.21889832  0.88687201  0.46020606    -0.81210
O430        O  0.16376401  0.88416800  0.43427688    -0.83850
C431        C  0.13466335  0.87242890  0.42765521     1.03860
O432        O  0.11497580  0.85157118  0.45826190    -0.76610
O433        O  0.11776568  0.79900834  0.43251192    -0.76800
C434        C  0.12930508  0.78151278  0.42665948     1.03810
O435        O  0.16174583  0.79789728  0.06699261    -0.84120
O436        O  0.21746367  0.85085344  0.04189089    -0.81190
C437        C  0.21838361  0.87091273  0.07363989     0.99350
O438        O  0.20076347  0.88232556  0.06808731    -0.81220
O439        O  0.14805892  0.88488595  0.04280604    -0.83820
C440        C  0.12751980  0.86518759  0.07378941     1.03830
O441        O  0.11591228  0.83609050  0.06722403    -0.76640
O442        O  0.11336521  0.78102484  0.04097858    -0.76790
C443        C  0.13254138  0.78022011  0.07275108     1.03790
Cr444      Cr  0.18080071  0.81872790  0.00007213     1.93740
Cr445      Cr  0.18047991  0.88093761  0.00100512     1.93210
Cr446      Cr  0.11805262  0.81792583  0.99986520     1.39100
O447        O  0.15978196  0.83921261  0.00029698    -1.21880
C448        C  0.07907701  0.92122404  0.25052284     0.04350
C449        C  0.08557103  0.91074087  0.20348018    -0.11800
C450        C  0.10227553  0.89468188  0.20374214     0.01850
C451        C  0.11204689  0.88827565  0.25095363    -0.10330
C452        C  0.10549111  0.89813913  0.29797109     0.04340
C453        C  0.08941584  0.91484506  0.29781637    -0.09750
H454        H  0.07742234  0.91467457  0.16659362     0.09940
H455        H  0.12473372  0.87557080  0.25110897     0.07470
H456        H  0.08531669  0.92303883  0.33454048     0.07310
C457        C  0.32412249  0.92344322  0.24947829     0.04350
C458        C  0.30684683  0.91331868  0.20238471    -0.11800
C459        C  0.27389050  0.89738122  0.20271380     0.01850
C460        C  0.25753986  0.88984932  0.24990334    -0.10330
C461        C  0.27394617  0.89894142  0.29685760     0.04340
C462        C  0.30685550  0.91638919  0.29671967    -0.09750
H463        H  0.31845163  0.91720130  0.16508644     0.09940
H464        H  0.23201405  0.87681514  0.25008832     0.07470
H465        H  0.31840150  0.92422820  0.33393953     0.07310
C466        C  0.07873677  0.67578989  0.25093408     0.04350
C467        C  0.08758582  0.69288335  0.29808998    -0.11800
C468        C  0.10338926  0.72584120  0.29761921     0.01850
C469        C  0.11124442  0.74208078  0.25020631    -0.10330
C470        C  0.10300859  0.72555598  0.20319278     0.04340
C471        C  0.08646014  0.69262257  0.20345830    -0.09750
H472        H  0.08260354  0.68078465  0.33522839     0.09940
H473        H  0.12381678  0.76760918  0.24989365     0.07470
H474        H  0.07946242  0.68031835  0.16656124     0.07310
C475        C  0.47788758  0.52214351  0.24975113     0.03510
C476        C  0.01116205  0.53907460  0.25050637     0.03510
C477        C  0.02774291  0.52249219  0.25038156     0.03510
C478        C  0.01092073  0.98898021  0.24905580     0.03510
C479        C  0.47761758  0.97227455  0.24977149     0.03510
C480        C  0.46117744  0.98897944  0.25024732     0.03510
C481        C  0.04908343  0.59111035  0.20975242    -0.12130
C482        C  0.02872740  0.57413686  0.25090402     0.10020
C483        C  0.02495601  0.59055447  0.29228194    -0.12130
C484        C  0.04080695  0.62340916  0.29204298    -0.12130
C485        C  0.06159001  0.64065552  0.25114016     0.10020
C486        C  0.06571434  0.62396044  0.21025134    -0.12130
H487        H  0.05225105  0.57886371  0.17737429     0.14010
H488        H  0.50939670  0.57771831  0.32416504     0.14010
H489        H  0.03636583  0.63517136  0.32368206     0.14010
H490        H  0.08199956  0.63616487  0.17867126     0.14010
C491        C  0.37653571  0.94349295  0.29561539    -0.12130
C492        C  0.35961299  0.94064300  0.24948440     0.10020
C493        C  0.37725916  0.95446144  0.20351959    -0.12130
C494        C  0.41010551  0.96932125  0.20350384    -0.12130
C495        C  0.42628306  0.97180923  0.24962541     0.10020
C496        C  0.40932089  0.95969920  0.29585898    -0.12130
H497        H  0.36499696  0.93313893  0.33207985     0.14010
H498        H  0.36619506  0.95446106  0.16726125     0.14010
H499        H  0.42226719  0.49049395  0.17557566     0.14010
H500        H  0.42150789  0.96279548  0.33239532     0.14010
C501        C  0.06481318  0.95859249  0.20828025    -0.12130
C502        C  0.06158234  0.93864951  0.25020174     0.10020
C503        C  0.04139471  0.93546529  0.29170525    -0.12130
C504        C  0.02530360  0.95206257  0.29157936    -0.12130
C505        C  0.02832073  0.97152299  0.24936565     0.10020
C506        C  0.04800627  0.97445782  0.20755437    -0.12130
H507        H  0.08055994  0.96226509  0.17611168     0.14010
H508        H  0.03769273  0.91990230  0.32416801     0.14010
H509        H  0.51026376  0.94950145  0.32404053     0.14010
H510        H  0.00930612  0.44822016  0.17693313     0.14010
C511        C  0.11200404  0.74271463  0.15475756    -0.12050
C512        C  0.12088187  0.75890278  0.11613120    -0.13610
C513        C  0.11166801  0.74337635  0.34560253    -0.12050
C514        C  0.11928276  0.75997500  0.38366046    -0.13610
C515        C  0.24069833  0.88009647  0.38402859    -0.12050
C516        C  0.25673109  0.88954022  0.34526845    -0.13610
C517        C  0.23990360  0.88090703  0.11658623    -0.12050
C518        C  0.25644686  0.88863236  0.15467342    -0.13610
C519        C  0.11516426  0.89066547  0.34624547    -0.12050
C520        C  0.12372787  0.88292059  0.38459727    -0.13610
C521        C  0.11725793  0.87611802  0.11718247    -0.12050
C522        C  0.10970780  0.88478734  0.15564616    -0.13610
C523        C  0.11214853  0.55250234  0.20883716    -0.12130
C524        C  0.12927482  0.57337570  0.24952144     0.10020
C525        C  0.11247194  0.57729564  0.29050658    -0.12130
C526        C  0.07962092  0.56045853  0.29118279    -0.12130
C527        C  0.06278517  0.54011098  0.25011367     0.10020
C528        C  0.07932336  0.53649787  0.20873303    -0.12130
H529        H  0.12397770  0.54812771  0.17719526     0.14010
H530        H  0.12458459  0.59359026  0.32196792     0.14010
H531        H  0.06726808  0.56349723  0.32357416     0.14010
H532        H  0.06548281  0.02632612  0.32870128     0.14010
C533        C  0.23133177  0.62295445  0.15310090    -0.12050
C534        C  0.24764252  0.63009690  0.11466879    -0.13610
C535        C  0.23194439  0.62437600  0.34376709    -0.12050
C536        C  0.24857504  0.63321631  0.38175095    -0.13610
C537        C  0.44671043  0.88835034  0.20469547    -0.12130
C538        C  0.42884867  0.87071930  0.24814066     0.10020
C539        C  0.42721664  0.88717539  0.29183571    -0.12130
C540        C  0.44343425  0.91997773  0.29253850    -0.12130
C541        C  0.46008900  0.93726818  0.24855812     0.10020
C542        C  0.46171207  0.92121862  0.20464145    -0.12130
H543        H  0.44958965  0.87695710  0.17085153     0.14010
H544        H  0.41344246  0.87491754  0.32584730     0.14010
H545        H  0.44332829  0.93184860  0.32788013     0.14010
H546        H  0.97501144  0.93437079  0.17056749     0.14010
C547        C  0.38136327  0.76844267  0.34418883    -0.12050
C548        C  0.37302560  0.75214717  0.38275040    -0.13610
C549        C  0.36672404  0.75146826  0.11542496    -0.12050
C550        C  0.37575953  0.76794006  0.15361967    -0.13610
C551        C  0.44813097  0.57648139  0.20821846    -0.12130
C552        C  0.42722769  0.57254556  0.24900032     0.10020
C553        C  0.42325631  0.55177468  0.29002959    -0.12130
C554        C  0.44003826  0.53588062  0.29064876    -0.12130
C555        C  0.46044094  0.53958236  0.24952893     0.10020
C556        C  0.46417325  0.55983420  0.20814068    -0.12130
H557        H  0.45247041  0.59269033  0.17649753     0.14010
H558        H  0.40692380  0.54743000  0.32155817     0.14010
H559        H  0.44106612  0.02429279  0.32665597     0.14010
H560        H  0.97969342  0.56315289  0.17644184     0.14010
C561        C  0.37636748  0.62353358  0.15326704    -0.12050
C562        C  0.36890722  0.63241556  0.11492768    -0.13610
C563        C  0.37615146  0.62331932  0.34430945    -0.12050
C564        C  0.36731022  0.63060568  0.38289019    -0.13610
C565        C  0.40944188  0.58955580  0.74928782     0.04350
C566        C  0.40146265  0.59855311  0.79650600    -0.11800
C567        C  0.38445545  0.61430385  0.79624207     0.01850
C568        C  0.37594331  0.62198363  0.74896455    -0.10330
C569        C  0.38401231  0.61366595  0.70183551     0.04340
C570        C  0.40031487  0.59718830  0.70187996    -0.09750
H571        H  0.40866251  0.59370332  0.83357070     0.09940
H572        H  0.36306321  0.63449550  0.74884793     0.07470
H573        H  0.40551059  0.59014835  0.66493942     0.07310
C574        C  0.40794270  0.83540018  0.74872750     0.04350
C575        C  0.39984824  0.81854190  0.70134258    -0.11800
C576        C  0.38339260  0.78557230  0.70136822     0.01850
C577        C  0.37545183  0.76909189  0.74856279    -0.10330
C578        C  0.38358232  0.78537683  0.79581467     0.04340
C579        C  0.39926840  0.81830485  0.79599493    -0.09750
H580        H  0.40672988  0.83084266  0.66434120     0.09940
H581        H  0.36311010  0.74356884  0.74851471     0.07470
H582        H  0.40450933  0.83039276  0.83308447     0.07310
O583        O  0.27080856  0.66069021  0.53880620    -0.84130
O584        O  0.32633431  0.71320961  0.56465654    -0.81170
C585        C  0.35545373  0.73034541  0.57176623     0.99330
O586        O  0.37503471  0.72888083  0.54166037    -0.81210
O587        O  0.37055385  0.67270539  0.56732106    -0.83850
C588        C  0.35867764  0.64346781  0.57253629     1.03860
O589        O  0.33862289  0.62454312  0.54041092    -0.76610
O590        O  0.28641543  0.62832213  0.56522249    -0.76800
C591        C  0.26933467  0.64037215  0.57072798     1.03810
O592        O  0.28728679  0.67396701  0.93153782    -0.84120
O593        O  0.33986417  0.72952073  0.95792190    -0.81190
C594        C  0.35994198  0.73054180  0.92603337     0.99350
O595        O  0.37161221  0.71314993  0.93180946    -0.81220
O596        O  0.37441768  0.66051246  0.95703799    -0.83820
C597        C  0.35512617  0.64012739  0.92566767     1.03830
O598        O  0.32594317  0.62833305  0.93160165    -0.76640
O599        O  0.27044490  0.62535923  0.95670087    -0.76790
C600        C  0.26969987  0.64479893  0.92531250     1.03790
Cr601      Cr  0.30812313  0.69268361  0.49742343     1.93740
Cr602      Cr  0.36981045  0.69245624  0.99886889     1.93210
Cr603      Cr  0.30696289  0.62982713  0.99860316     1.39100
O604        O  0.32808888  0.67156361  0.99881420    -1.21880
C605        C  0.16468231  0.59101374  0.74880253     0.04350
C606        C  0.18175219  0.59908123  0.79593683    -0.11800
C607        C  0.21470049  0.61581034  0.79548486     0.01850
C608        C  0.23097326  0.62396046  0.74807644    -0.10330
C609        C  0.21447919  0.61582417  0.70102387     0.04340
C610        C  0.18154279  0.59983870  0.70129770    -0.09750
H611        H  0.16962709  0.59212181  0.83309192     0.09940
H612        H  0.25649490  0.63659964  0.74779918     0.07470
H613        H  0.16926779  0.59462353  0.66440103     0.07310
O614        O  0.14892958  0.78191328  0.95813513    -0.84130
O615        O  0.20147943  0.83810088  0.93321042    -0.81130
C616        C  0.21886947  0.86737605  0.92769403     0.99330
O617        O  0.21753009  0.88633923  0.95935655    -0.81210
O618        O  0.16186699  0.88282196  0.93394934    -0.83850
C619        C  0.13269253  0.87075518  0.92767747     1.03860
O620        O  0.11332080  0.85005119  0.95876056    -0.76610
O621        O  0.11692793  0.79805226  0.93246676    -0.76800
C622        C  0.12872178  0.78079131  0.92652585     1.03810
O623        O  0.16230499  0.79829146  0.56690265    -0.84120
O624        O  0.21827792  0.85115092  0.54215760    -0.81190
C625        C  0.21918048  0.87106858  0.57423530     0.99350
O626        O  0.20172618  0.88266855  0.56873941    -0.81220
O627        O  0.14967568  0.88621501  0.54272937    -0.83820
C628        C  0.12897525  0.86668703  0.57361742     1.03830
O629        O  0.11705299  0.83754300  0.56705599    -0.76640
O630        O  0.11397387  0.78213868  0.54121082    -0.76790
C631        C  0.13305073  0.78087960  0.57268765     1.03790
Cr632      Cr  0.18153196  0.81925891  0.50010954     1.93740
Cr633      Cr  0.18191019  0.88179507  0.50145094     1.93210
Cr634      Cr  0.11910133  0.81915553  0.49979066     1.39100
O635        O  0.16081545  0.84005452  0.50045311    -1.21880
C636        C  0.07868176  0.92099391  0.75040031     0.04350
C637        C  0.08749308  0.91285059  0.70314405    -0.11800
C638        C  0.10341983  0.89600937  0.70338288     0.01850
C639        C  0.11151798  0.88788775  0.75065711    -0.10330
C640        C  0.10337871  0.89612506  0.79780397     0.04340
C641        C  0.08667834  0.91219266  0.79778629    -0.09750
H642        H  0.08235604  0.91977966  0.66605711     0.09940
H643        H  0.12416275  0.87514037  0.75075664     0.07470
H644        H  0.07972969  0.91743351  0.83478029     0.07310
C645        C  0.32422494  0.92142474  0.75058497     0.04350
C646        C  0.30718476  0.91241197  0.70342571    -0.11800
C647        C  0.27426008  0.89660992  0.70380605     0.01850
C648        C  0.25795977  0.88891290  0.75114884    -0.10330
C649        C  0.27440986  0.89727111  0.79822397     0.04340
C650        C  0.30735805  0.91380352  0.79805016    -0.09750
H651        H  0.31930958  0.91726835  0.66631858     0.09940
H652        H  0.23243803  0.87635387  0.75135851     0.07470
H653        H  0.31964460  0.92086688  0.83494825     0.07310
C654        C  0.07883282  0.67570218  0.75005449     0.04350
C655        C  0.08762262  0.69273595  0.79725163    -0.11800
C656        C  0.10337431  0.72567547  0.79691151     0.01850
C657        C  0.11125940  0.74199511  0.74957717    -0.10330
C658        C  0.10312979  0.72555461  0.70247322     0.04340
C659        C  0.08662858  0.69259986  0.70261233    -0.09750
H660        H  0.08263370  0.68060100  0.83435719     0.09940
H661        H  0.12378640  0.76752285  0.74939710     0.07470
H662        H  0.07971753  0.68033405  0.66567647     0.07310
C663        C  0.47801106  0.52216328  0.75016560     0.03510
C664        C  0.01135564  0.53896927  0.75016912     0.03510
C665        C  0.02794433  0.52239527  0.75008474     0.03510
C666        C  0.01075284  0.98906225  0.75005839     0.03510
C667        C  0.47744360  0.97222203  0.74971783     0.03510
C668        C  0.46088465  0.98882311  0.74976067     0.03510
C669        C  0.04924709  0.59096751  0.70918289    -0.12130
C670        C  0.02891880  0.57403671  0.75040271     0.10020
C671        C  0.02513223  0.59050472  0.79167363    -0.12130
C672        C  0.04091145  0.62335168  0.79124868    -0.12130
C673        C  0.06167479  0.64056276  0.75029163     0.10020
C674        C  0.06581831  0.62382739  0.70950138    -0.12130
H675        H  0.05242624  0.57868202  0.67687955     0.14010
H676        H  0.50962061  0.57784969  0.82414189     0.14010
H677        H  0.03643195  0.63513347  0.82280847     0.14010
H678        H  0.08207410  0.63600896  0.67787593     0.14010
C679        C  0.37612432  0.93452235  0.79097106    -0.12130
C680        C  0.35934231  0.93860859  0.75023932     0.10020
C681        C  0.37647815  0.95928473  0.70914907    -0.12130
C682        C  0.40930812  0.97501935  0.70850709    -0.12130
C683        C  0.42583102  0.97127477  0.74969330     0.10020
C684        C  0.40897634  0.95103635  0.79105301    -0.12130
H685        H  0.36397966  0.91834224  0.82270311     0.14010
H686        H  0.36464431  0.96371199  0.67763572     0.14010
H687        H  0.42233087  0.49050132  0.67628488     0.14010
H688        H  0.42131669  0.94789119  0.82328051     0.14010
C689        C  0.04044668  0.93454988  0.70945992    -0.12130
C690        C  0.06125291  0.93851656  0.75027541     0.10020
C691        C  0.06519800  0.95938853  0.79099963    -0.12130
C692        C  0.04845970  0.97532407  0.79131766    -0.12130
C693        C  0.02818813  0.97161873  0.75012665     0.10020
C694        C  0.02452595  0.95130347  0.70899912    -0.12130
H695        H  0.03608319  0.91824354  0.67798700     0.14010
H696        H  0.08146112  0.96377599  0.82253024     0.14010
H697        H  0.55128159  0.99043866  0.82409656     0.14010
H698        H  0.00941654  0.44810991  0.67682367     0.14010
C699        C  0.11220019  0.74286041  0.65413508    -0.12050
C700        C  0.12120635  0.75929359  0.61576101    -0.13610
C701        C  0.11154744  0.74307687  0.84500292    -0.12050
C702        C  0.11899081  0.75946310  0.88329041    -0.13610
C703        C  0.24056356  0.87935480  0.88479596    -0.12050
C704        C  0.25709626  0.88835574  0.84654381    -0.13610
C705        C  0.24049289  0.88073287  0.61744951    -0.12050
C706        C  0.25686086  0.88824111  0.65573764    -0.13610
C707        C  0.11245746  0.88804388  0.84608022    -0.12050
C708        C  0.12127139  0.88062637  0.88448920    -0.13610
C709        C  0.11895490  0.87792560  0.61689161    -0.12050
C710        C  0.11150271  0.88677496  0.65524143    -0.13610
C711        C  0.11242505  0.55249112  0.70852800    -0.12130
C712        C  0.12954065  0.57341255  0.74916579     0.10020
C713        C  0.11270568  0.57728977  0.79015432    -0.12130
C714        C  0.07984845  0.56040953  0.79084292    -0.12130
C715        C  0.06301313  0.54002923  0.74980331     0.10020
C716        C  0.07958278  0.53641321  0.70845989    -0.12130
H717        H  0.12428337  0.54816003  0.67687954     0.14010
H718        H  0.12479943  0.59361091  0.82159315     0.14010
H719        H  0.06748812  0.56345162  0.82321897     0.14010
H720        H  0.06672324  0.02095563  0.67652085     0.14010
C721        C  0.23167286  0.62375917  0.65257465    -0.12050
C722        C  0.24792072  0.63091414  0.61400563    -0.13610
C723        C  0.23213124  0.62481322  0.84356181    -0.12050
C724        C  0.24844564  0.63348936  0.88195052    -0.13610
C725        C  0.44674344  0.88734834  0.78966090    -0.12130
C726        C  0.42573940  0.87056226  0.74891956     0.10020
C727        C  0.42210658  0.88775070  0.70829171    -0.12130
C728        C  0.43929622  0.92062073  0.70806562    -0.12130
C729        C  0.45972685  0.93712915  0.74925791     0.10020
C730        C  0.46310165  0.92020047  0.79023037    -0.12130
H731        H  0.45093674  0.87522763  0.82101969     0.14010
H732        H  0.40576238  0.87592759  0.67677149     0.14010
H733        H  0.43641750  0.93325081  0.67596439     0.14010
H734        H  0.97881649  0.93312312  0.82367156     0.14010
C735        C  0.37618208  0.76800419  0.84400779    -0.12050
C736        C  0.36941930  0.75175404  0.88250509    -0.13610
C737        C  0.36651073  0.75187357  0.61480931    -0.12050
C738        C  0.37480075  0.76828894  0.65311491    -0.13610
C739        C  0.44808735  0.57636156  0.70876327    -0.12130
C740        C  0.42714334  0.57231753  0.74953964     0.10020
C741        C  0.42328379  0.55161207  0.79059915    -0.12130
C742        C  0.44018161  0.53584524  0.79121968    -0.12130
C743        C  0.46056736  0.53959164  0.75004860     0.10020
C744        C  0.46422611  0.55981653  0.70866340    -0.12130
H745        H  0.45235045  0.59254375  0.67703279     0.14010
H746        H  0.40693128  0.54719917  0.82212577     0.14010
H747        H  0.43684628  0.02060529  0.82358428     0.14010
H748        H  0.97983813  0.56308709  0.67638409     0.14010
C749        C  0.37566912  0.62253938  0.65360743    -0.12050
C750        C  0.36819813  0.63151496  0.61544942    -0.13610
C751        C  0.37544690  0.62264666  0.84435463    -0.12050
C752        C  0.36663502  0.63022909  0.88260327    -0.13610
C753        C  0.91031042  0.09077948  0.25074720     0.04350
C754        C  0.90276435  0.10024894  0.29800391    -0.11800
C755        C  0.88572532  0.11600775  0.29783904     0.01850
C756        C  0.87704574  0.12353969  0.25056279    -0.10330
C757        C  0.88475345  0.11487830  0.20342222     0.04340
C758        C  0.90073977  0.09810171  0.20345400    -0.09750
H759        H  0.91021582  0.09572763  0.33506772     0.09940
H760        H  0.86425600  0.13614101  0.25045646     0.07470
H761        H  0.90531427  0.09062452  0.16644073     0.07310
C762        C  0.90905310  0.33570244  0.25061960     0.04350
C763        C  0.90110332  0.31861080  0.20348553    -0.11800
C764        C  0.88447231  0.28564798  0.20400613     0.01850
C765        C  0.87632703  0.26941807  0.25141185    -0.10330
C766        C  0.88433688  0.28595339  0.29839210     0.04340
C767        C  0.90016956  0.31887007  0.29811566    -0.09750
H768        H  0.90808171  0.33071917  0.16632340     0.09940
H769        H  0.86378500  0.24388935  0.25174447     0.07470
H770        H  0.90525418  0.33114760  0.33501117     0.07310
O771        O  0.77068277  0.15901094  0.04368338    -0.84130
O772        O  0.82616197  0.21188783  0.06963707    -0.81170
C773        C  0.85530517  0.22987920  0.07515803     0.99330
O774        O  0.87462229  0.22932694  0.04330839    -0.81210
O775        O  0.87152891  0.17357828  0.06782125    -0.83850
C776        C  0.85989799  0.14434587  0.07299619     1.03860
O777        O  0.84014318  0.12529570  0.04056833    -0.76610
O778        O  0.78708511  0.12669797  0.06642373    -0.76800
C779        C  0.76957506  0.13806328  0.07369317     1.03810
O780        O  0.78694693  0.17429110  0.43363428    -0.84120
O781        O  0.83934927  0.22990340  0.46019483    -0.81190
C782        C  0.85963148  0.23117482  0.42849309     0.99350
O783        O  0.87142125  0.21389465  0.43417542    -0.81220
O784        O  0.87468906  0.16151341  0.45906330    -0.83820
C785        C  0.85561550  0.14118767  0.42738434     1.03830
O786        O  0.82637029  0.12918323  0.43310458    -0.76640
O787        O  0.77049093  0.12565865  0.45823004    -0.76790
C788        C  0.76947162  0.14513092  0.42725297     1.03790
Cr789      Cr  0.80734584  0.19194366  0.00225629     1.93740
Cr790      Cr  0.86965068  0.19316530  0.50103766     1.93210
Cr791      Cr  0.80707821  0.13029419  0.50015966     1.39100
O792        O  0.82792660  0.17202437  0.50072778    -1.21880
C793        C  0.66442396  0.08813581  0.25068441     0.04350
C794        C  0.68137457  0.09906498  0.29778803    -0.11800
C795        C  0.71432336  0.11492692  0.29779555     0.01850
C796        C  0.73079225  0.12112503  0.25079044    -0.10330
C797        C  0.71449668  0.11097112  0.20376073     0.04340
C798        C  0.68158250  0.09396041  0.20371342    -0.09750
H799        H  0.66926936  0.09577068  0.33455357     0.09940
H800        H  0.75631668  0.13395948  0.25079765     0.07470
H801        H  0.66967402  0.08531204  0.16683599     0.07310
O802        O  0.64956258  0.28219029  0.45901720    -0.84130
O803        O  0.70229394  0.33797245  0.43341376    -0.81130
C804        C  0.71977073  0.36718583  0.42730614     0.99330
O805        O  0.71877501  0.38642723  0.45872715    -0.81210
O806        O  0.66329665  0.38324553  0.43290414    -0.83850
C807        C  0.63412926  0.37141781  0.42683828     1.03860
O808        O  0.61473641  0.35099425  0.45825340    -0.76610
O809        O  0.61777751  0.29852006  0.43293173    -0.76800
C810        C  0.62939954  0.28107601  0.42733531     1.03810
O811        O  0.66158432  0.29793462  0.06743752    -0.84120
O812        O  0.71776808  0.35032359  0.04202252    -0.81190
C813        C  0.71903737  0.37073741  0.07334010     0.99350
O814        O  0.70179626  0.38254560  0.06731158    -0.81220
O815        O  0.64958080  0.38583011  0.04152260    -0.83820
C816        C  0.62900567  0.36649691  0.07282586     1.03830
O817        O  0.61696392  0.33730136  0.06669481    -0.76640
O818        O  0.61338423  0.28163603  0.04109875    -0.76790
C819        C  0.63231528  0.28067426  0.07319748     1.03790
Cr820      Cr  0.68091078  0.31836197  0.00032680     1.93740
Cr821      Cr  0.68161606  0.38110444  0.00008514     1.93210
Cr822      Cr  0.61868916  0.31861478  0.99959244     1.39100
O823        O  0.66041693  0.33937381  0.99997766    -1.21880
C824        C  0.57918965  0.42104572  0.25002480     0.04350
C825        C  0.58789358  0.41288690  0.20266888    -0.11800
C826        C  0.60395591  0.39618047  0.20271125     0.01850
C827        C  0.61231629  0.38821563  0.24987861    -0.10330
C828        C  0.60431830  0.39648346  0.29712850     0.04340
C829        C  0.58745936  0.41240000  0.29731716    -0.09750
H830        H  0.58258446  0.41971091  0.16563537     0.09940
H831        H  0.62506806  0.37557500  0.24981383     0.07470
H832        H  0.58061732  0.41765207  0.33439914     0.07310
C833        C  0.82440881  0.42121876  0.24938623     0.04350
C834        C  0.80737923  0.41235491  0.20219466    -0.11800
C835        C  0.77443636  0.39647405  0.20257816     0.01850
C836        C  0.75813411  0.38854044  0.24993715    -0.10330
C837        C  0.77459147  0.39677337  0.29699958     0.04340
C838        C  0.80752136  0.41340784  0.29682618    -0.09750
H839        H  0.81951747  0.41738642  0.16508167     0.09940
H840        H  0.73261157  0.37591201  0.25016897     0.07470
H841        H  0.81977659  0.42040501  0.33375558     0.07310
C842        C  0.57738318  0.17585099  0.25062337     0.04350
C843        C  0.58750464  0.19287549  0.29791011    -0.11800
C844        C  0.60335318  0.22583566  0.29797305     0.01850
C845        C  0.61078204  0.24237379  0.25095839    -0.10330
C846        C  0.60166509  0.22614125  0.20381007     0.04340
C847        C  0.58431492  0.19322688  0.20358991    -0.09750
H848        H  0.58360241  0.18098131  0.33496572     0.09940
H849        H  0.62372274  0.26790634  0.25106202     0.07470
H850        H  0.57636607  0.18166764  0.16635174     0.07310
C851        C  0.97795881  0.02228303  0.24963152     0.03510
C852        C  0.51118952  0.03887637  0.24810847     0.03510
C853        C  0.52771349  0.02226962  0.24802718     0.03510
C854        C  0.51106387  0.48898066  0.24995409     0.03510
C855        C  0.97765359  0.47239169  0.24988259     0.03510
C856        C  0.96108236  0.48898089  0.24971583     0.03510
C857        C  0.54216923  0.09099906  0.20363378    -0.12130
C858        C  0.52855655  0.07380113  0.24918830     0.10020
C859        C  0.52978238  0.08980277  0.29496573    -0.12130
C860        C  0.54485257  0.12266523  0.29529795    -0.12130
C861        C  0.56016337  0.14044267  0.25019394     0.10020
C862        C  0.55868093  0.12379210  0.20444507    -0.12130
H863        H  0.53995111  0.07901899  0.16718653     0.14010
H864        H  0.01844795  0.07681157  0.33032033     0.14010
H865        H  0.54388853  0.13373574  0.33101119     0.14010
H866        H  0.57031419  0.13565368  0.16879958     0.14010
C867        C  0.87624271  0.43438143  0.29009057    -0.12130
C868        C  0.85953289  0.43845917  0.24921547     0.10020
C869        C  0.87675378  0.45925349  0.20830653    -0.12130
C870        C  0.90959730  0.47513396  0.20801917    -0.12130
C871        C  0.92603044  0.47140016  0.24937277     0.10020
C872        C  0.90908337  0.45105290  0.29055144    -0.12130
H873        H  0.86405909  0.41809491  0.32167655     0.14010
H874        H  0.86498072  0.46367106  0.17668350     0.14010
H875        H  0.92298690  0.98005910  0.16817948     0.14010
H876        H  0.92134452  0.44791605  0.32291342     0.14010
C877        C  0.54082507  0.43451621  0.20926166    -0.12130
C878        C  0.56163999  0.43846657  0.25006397     0.10020
C879        C  0.56552576  0.45928090  0.29085863    -0.12130
C880        C  0.54875500  0.47519027  0.29122625    -0.12130
C881        C  0.52851224  0.47153445  0.25000912     0.10020
C882        C  0.52489308  0.45126154  0.20883390    -0.12130
H883        H  0.53647246  0.41824394  0.17774060     0.14010
H884        H  0.58178426  0.46366898  0.32239368     0.14010
H885        H  0.05180465  0.49090620  0.32366929     0.14010
H886        H  0.55057156  0.98929696  0.17429493     0.14010
C887        C  0.61091141  0.24352872  0.15558401    -0.12050
C888        C  0.62024741  0.25964538  0.11691506    -0.13610
C889        C  0.61198280  0.24309167  0.34620166    -0.12050
C890        C  0.61955924  0.25955964  0.38438301    -0.13610
C891        C  0.74110418  0.37879915  0.38393130    -0.12050
C892        C  0.75735997  0.38770693  0.34537406    -0.13610
C893        C  0.74050287  0.38066133  0.11638402    -0.12050
C894        C  0.75699546  0.38821858  0.15453673    -0.13610
C895        C  0.61370687  0.38857953  0.34528088    -0.12050
C896        C  0.62270883  0.38126191  0.38358818    -0.13610
C897        C  0.61923390  0.37799438  0.11606774    -0.12050
C898        C  0.61191293  0.38692369  0.15446960    -0.13610
C899        C  0.61146668  0.05415478  0.29432692    -0.12130
C900        C  0.62919475  0.07119847  0.25033945     0.10020
C901        C  0.61278816  0.07172252  0.20570622    -0.12130
C902        C  0.58000430  0.05530648  0.20473927    -0.12130
C903        C  0.56267113  0.03966412  0.24928304     0.10020
C904        C  0.57860736  0.03902625  0.29403260    -0.12130
H905        H  0.62274473  0.05200629  0.32893630     0.14010
H906        H  0.62502491  0.08482007  0.17117297     0.14010
H907        H  0.56816802  0.05456896  0.16886510     0.14010
H908        H  0.56717013  0.52089357  0.17707988     0.14010
C909        C  0.73183765  0.11880988  0.15550101    -0.12050
C910        C  0.74811017  0.12703949  0.11693164    -0.13610
C911        C  0.73161372  0.12500442  0.34591659    -0.12050
C912        C  0.74802591  0.13387577  0.38416766    -0.13610
C913        C  0.94744857  0.38789108  0.29114276    -0.12130
C914        C  0.92664626  0.37083203  0.25034596     0.10020
C915        C  0.92288226  0.38770758  0.20933822    -0.12130
C916        C  0.93976876  0.42056839  0.20879110    -0.12130
C917        C  0.96002286  0.43733864  0.24999479     0.10020
C918        C  0.96350973  0.42072590  0.29136338    -0.12130
H919        H  0.95170670  0.37599770  0.32280245     0.14010
H920        H  0.90665672  0.37564341  0.17778118     0.14010
H921        H  0.93683213  0.43298203  0.17640469     0.14010
H922        H  0.47905999  0.43284300  0.32282250     0.14010
C923        C  0.87645807  0.26881171  0.34678313    -0.12050
C924        C  0.86929156  0.25256241  0.38528050    -0.13610
C925        C  0.86672928  0.25144471  0.11808616    -0.12050
C926        C  0.87551936  0.26808963  0.15607903    -0.13610
C927        C  0.94688471  0.07539182  0.20783007    -0.12130
C928        C  0.92789962  0.07330924  0.25066594     0.10020
C929        C  0.92582243  0.05419680  0.29325974    -0.12130
C930        C  0.94247633  0.03815617  0.29325411    -0.12130
C931        C  0.96065519  0.03982526  0.24997115     0.10020
C932        C  0.96255513  0.05838589  0.20714213    -0.12130
H933        H  0.95005265  0.09038386  0.17479871     0.14010
H934        H  0.91105379  0.05116214  0.32656498     0.14010
H935        H  0.93692710  0.52052221  0.32353088     0.14010
H936        H  0.47634839  0.05970848  0.17279942     0.14010
C937        C  0.87642971  0.12367988  0.15505198    -0.12050
C938        C  0.86922416  0.13253422  0.11641573    -0.13610
C939        C  0.87661600  0.12429003  0.34602802    -0.12050
C940        C  0.86748108  0.13161881  0.38424960    -0.13610
C941        C  0.91021569  0.09075477  0.74968878     0.04350
C942        C  0.90269462  0.10005463  0.79703273    -0.11800
C943        C  0.88619179  0.11631920  0.79700874     0.01850
C944        C  0.87773602  0.12419430  0.74985695    -0.10330
C945        C  0.88532619  0.11553124  0.70261470     0.04340
C946        C  0.90112197  0.09856110  0.70242503    -0.09750
H947        H  0.90983056  0.09500621  0.83399211     0.09940
H948        H  0.86519113  0.13704184  0.74992878     0.07470
H949        H  0.90592938  0.09125209  0.66541117     0.07310
C950        C  0.90887205  0.33547822  0.75104562     0.04350
C951        C  0.90066460  0.31837457  0.70391831    -0.11800
C952        C  0.88382917  0.28541662  0.70440133     0.01850
C953        C  0.87571468  0.26916656  0.75181680    -0.10330
C954        C  0.88399236  0.28569225  0.79884802     0.04340
C955        C  0.90006771  0.31863618  0.79855970    -0.09750
H956        H  0.90760745  0.33047414  0.66674595     0.09940
H957        H  0.86301173  0.24363694  0.75211608     0.07470
H958        H  0.90538195  0.33092893  0.83546024     0.07310
O959        O  0.76999741  0.16015002  0.54191668    -0.84130
O960        O  0.82552913  0.21265954  0.56852935    -0.81170
C961        C  0.85468231  0.23030748  0.57466327     0.99330
O962        O  0.87410277  0.22962774  0.54314736    -0.81210
O963        O  0.87104723  0.17400544  0.56786702    -0.83850
C964        C  0.85929633  0.14479582  0.57346479     1.03860
O965        O  0.83897813  0.12558983  0.54190882    -0.76610
O966        O  0.78624428  0.12816848  0.56725735    -0.76800
C967        C  0.76892091  0.13988838  0.57343274     1.03810
O968        O  0.78683294  0.17377560  0.93497709    -0.84120
O969        O  0.83931166  0.22931229  0.96098975    -0.81190
C970        C  0.85965779  0.23084804  0.92906427     0.99350
O971        O  0.87175234  0.21380319  0.93449616    -0.81220
O972        O  0.87547659  0.16152975  0.95890740    -0.83820
C973        C  0.85655849  0.14157647  0.92664585     1.03830
O974        O  0.82732822  0.12966482  0.93191546    -0.76640
O975        O  0.77114924  0.12505805  0.95788092    -0.76790
C976        C  0.76968063  0.14465108  0.92783246     1.03790
Cr977      Cr  0.80705330  0.19267359  0.50104478     1.93740
Cr978      Cr  0.87019647  0.19294014  0.00112424     1.93210
Cr979      Cr  0.80798210  0.12985349  0.99925249     1.39100
O980        O  0.82846726  0.17157178  0.00086892    -1.21880
C981        C  0.66437766  0.09190365  0.75136525     0.04350
C982        C  0.68131627  0.10010318  0.79865716    -0.11800
C983        C  0.71428075  0.11654608  0.79844572     0.01850
C984        C  0.73066965  0.12437556  0.75115150    -0.10330
C985        C  0.71430389  0.11615687  0.70398643     0.04340
C986        C  0.68138439  0.10047654  0.70400040    -0.09750
H987        H  0.66907999  0.09331268  0.83572605     0.09940
H988        H  0.75618541  0.13671535  0.75105467     0.07470
H989        H  0.66923092  0.09516771  0.66697953     0.07310
O990        O  0.64872236  0.28162765  0.95861569    -0.84130
O991        O  0.70179346  0.33727332  0.93331046    -0.81130
C992        C  0.71940533  0.36648771  0.92731586     0.99330
O993        O  0.71841247  0.38575650  0.95868661    -0.81210
O994        O  0.66311717  0.38294576  0.93285400    -0.83850
C995        C  0.63397770  0.37128128  0.92674504     1.03860
O996        O  0.61449064  0.35089793  0.95808629    -0.76610
O997        O  0.61724074  0.29831933  0.93246915    -0.76800
C998        C  0.62869828  0.28073764  0.92682520     1.03810
O999        O  0.66248102  0.29853816  0.56762067    -0.84120
O1000       O  0.71841600  0.35121268  0.54208589    -0.81190
C1001       C  0.71951397  0.37152054  0.57346353     0.99350
O1002       O  0.70218316  0.38322464  0.56738085    -0.81220
O1003       O  0.64979812  0.38618809  0.54152318    -0.83820
C1004       C  0.62932622  0.36684790  0.57293644     1.03830
O1005       O  0.61743230  0.33765591  0.56697415    -0.76640
O1006       O  0.61416544  0.28204561  0.54163105    -0.76790
C1007       C  0.63324586  0.28098565  0.57330225     1.03790
Cr1008     Cr  0.68162656  0.31906493  0.50051889     1.93740
Cr1009     Cr  0.68192071  0.38160367  0.50014368     1.93210
Cr1010     Cr  0.61919246  0.31889928  0.49995894     1.39100
O1011       O  0.66091422  0.33986149  0.50021431    -1.21880
C1012       C  0.57934467  0.42121610  0.75011530     0.04350
C1013       C  0.58811330  0.41316089  0.70273286    -0.11800
C1014       C  0.60420578  0.39648827  0.70273109     0.01850
C1015       C  0.61253000  0.38846371  0.74986889    -0.10330
C1016       C  0.60445321  0.39663347  0.79712924     0.04340
C1017       C  0.58756729  0.41251223  0.79737541    -0.09750
H1018       H  0.58281292  0.42002519  0.66572762     0.09940
H1019       H  0.62529846  0.37583960  0.74977341     0.07470
H1020       H  0.58066423  0.41769022  0.83446740     0.07310
C1021       C  0.82454164  0.42114494  0.74994359     0.04350
C1022       C  0.80753571  0.41252529  0.70272481    -0.11800
C1023       C  0.77460313  0.39671489  0.70304239     0.01850
C1024       C  0.75825754  0.38854472  0.75035778    -0.10330
C1025       C  0.77466499  0.39647715  0.79746669     0.04340
C1026       C  0.80760901  0.41308440  0.79737315    -0.09750
H1027       H  0.81967923  0.41769426  0.66560513     0.09940
H1028       H  0.73273558  0.37596069  0.75051846     0.07470
H1029       H  0.81982930  0.41987087  0.83434502     0.07310
C1030       C  0.57836019  0.17564186  0.75028040     0.04350
C1031       C  0.58715928  0.19262211  0.79753067    -0.11800
C1032       C  0.60308294  0.22556397  0.79728975     0.01850
C1033       C  0.61112921  0.24193471  0.75001198    -0.10330
C1034       C  0.60299011  0.22554515  0.70286827     0.04340
C1035       C  0.58631145  0.19259039  0.70288696    -0.09750
H1036       H  0.58206430  0.18044208  0.83460451     0.09940
H1037       H  0.62379943  0.26746524  0.74990717     0.07470
H1038       H  0.57941338  0.18036708  0.66591108     0.07310
C1039       C  0.97761043  0.02222622  0.74984072     0.03510
C1040       C  0.51096249  0.03893023  0.75067851     0.03510
C1041       C  0.52757885  0.02238401  0.75088595     0.03510
C1042       C  0.51115186  0.48899473  0.75024277     0.03510
C1043       C  0.97782836  0.47225859  0.74992419     0.03510
C1044       C  0.96125767  0.48884812  0.74977619     0.03510
C1045       C  0.54881464  0.09089180  0.70957415    -0.12130
C1046       C  0.52847581  0.07399447  0.75080141     0.10020
C1047       C  0.52457836  0.09048513  0.79191086    -0.12130
C1048       C  0.54029338  0.12332406  0.79135478    -0.12130
C1049       C  0.56111389  0.14050713  0.75044834     0.10020
C1050       C  0.56532008  0.12375270  0.70976199    -0.12130
H1051       H  0.55206253  0.07857906  0.67738722     0.14010
H1052       H  0.00916823  0.07784291  0.82393636     0.14010
H1053       H  0.53575384  0.13512564  0.82280931     0.14010
H1054       H  0.58160506  0.13591982  0.67816390     0.14010
C1055       C  0.87643913  0.43428707  0.79049656    -0.12130
C1056       C  0.85968080  0.43839803  0.74973690     0.10020
C1057       C  0.87687438  0.45920929  0.70881772    -0.12130
C1058       C  0.90971141  0.47502169  0.70835477    -0.12130
C1059       C  0.92619602  0.47126070  0.74958778     0.10020
C1060       C  0.90928892  0.45092266  0.79081017    -0.12130
H1061       H  0.86429367  0.41799923  0.82209545     0.14010
H1062       H  0.86509375  0.46369717  0.67729628     0.14010
H1063       H  0.92189057  0.99042831  0.67592300     0.14010
H1064       H  0.92158640  0.44776622  0.82309319     0.14010
C1065       C  0.54086115  0.43453472  0.70952390    -0.12130
C1066       C  0.56176091  0.43857898  0.75022489     0.10020
C1067       C  0.56570055  0.45942501  0.79098930    -0.12130
C1068       C  0.54890858  0.47530454  0.79140387    -0.12130
C1069       C  0.52858406  0.47155896  0.75027836     0.10020
C1070       C  0.52488970  0.45123390  0.70915544    -0.12130
H1071       H  0.53648533  0.41823081  0.67804204     0.14010
H1072       H  0.58202188  0.46386108  0.82244509     0.14010
H1073       H  0.05201421  0.49088570  0.82346843     0.14010
H1074       H  0.50943863  0.94850641  0.67662982     0.14010
C1075       C  0.61225870  0.24291753  0.65463012    -0.12050
C1076       C  0.62140670  0.25942403  0.61636994    -0.13610
C1077       C  0.61129605  0.24292411  0.84541985    -0.12050
C1078       C  0.61881449  0.25932818  0.88368998    -0.13610
C1079       C  0.74091119  0.37810425  0.88413734    -0.12050
C1080       C  0.75733696  0.38716655  0.84576552    -0.13610
C1081       C  0.74085315  0.38138951  0.61667460    -0.12050
C1082       C  0.75723171  0.38875487  0.65494848    -0.13610
C1083       C  0.61376812  0.38865119  0.84524088    -0.12050
C1084       C  0.62269202  0.38125592  0.88352868    -0.13610
C1085       C  0.61951764  0.37834172  0.61611555    -0.12050
C1086       C  0.61218670  0.38727838  0.65448542    -0.13610
C1087       C  0.61239007  0.05298698  0.71075373    -0.12130
C1088       C  0.62922224  0.07409942  0.75135164     0.10020
C1089       C  0.61208700  0.07783779  0.79197785    -0.12130
C1090       C  0.57921997  0.06065172  0.79232540    -0.12130
C1091       C  0.56266665  0.04011324  0.75126099     0.10020
C1092       C  0.57954860  0.03663604  0.71029879    -0.12130
H1093       H  0.62446886  0.04870887  0.67940945     0.14010
H1094       H  0.62395114  0.09426144  0.82339520     0.14010
H1095       H  0.56662962  0.06361660  0.82441514     0.14010
H1096       H  0.56702255  0.52092529  0.67634791     0.14010
C1097       C  0.73158248  0.12351073  0.65567632    -0.12050
C1098       C  0.74775624  0.13029660  0.61706494    -0.13610
C1099       C  0.73165271  0.12524447  0.84660676    -0.12050
C1100       C  0.74812344  0.13359361  0.88483787    -0.13610
C1101       C  0.94755610  0.38770251  0.79131076    -0.12130
C1102       C  0.92660935  0.37063158  0.75067754     0.10020
C1103       C  0.92282988  0.38752471  0.70970291    -0.12130
C1104       C  0.93981294  0.42038747  0.70903644    -0.12130
C1105       C  0.96018693  0.43717900  0.75010255     0.10020
C1106       C  0.96372344  0.42055532  0.79141776    -0.12130
H1107       H  0.95182904  0.37580324  0.82294221     0.14010
H1108       H  0.90649831  0.37547771  0.67826653     0.14010
H1109       H  0.93683061  0.43278958  0.67667994     0.14010
H1110       H  0.47913478  0.43297447  0.82385819     0.14010
C1111       C  0.87615055  0.26852137  0.84729106    -0.12050
C1112       C  0.86907230  0.25227713  0.88583933    -0.13610
C1113       C  0.86599874  0.25157870  0.61801753    -0.12050
C1114       C  0.87472748  0.26794355  0.65635787    -0.13610
C1115       C  0.94815654  0.07681204  0.70864740    -0.12130
C1116       C  0.92742775  0.07303853  0.74961954     0.10020
C1117       C  0.92336283  0.05219824  0.79057000    -0.12130
C1118       C  0.93993227  0.03609352  0.79095408    -0.12130
C1119       C  0.96019968  0.03967666  0.74968170     0.10020
C1120       C  0.96396887  0.05995448  0.70832789    -0.12130
H1121       H  0.95255316  0.09307112  0.67698094     0.14010
H1122       H  0.90714918  0.04799687  0.82223038     0.14010
H1123       H  0.93708028  0.52031167  0.82340272     0.14010
H1124       H  0.47940741  0.06274175  0.67613309     0.14010
C1125       C  0.87686085  0.12438030  0.65448825    -0.12050
C1126       C  0.86919860  0.13317261  0.61633160    -0.13610
C1127       C  0.87740507  0.12476162  0.84522957    -0.12050
C1128       C  0.86849758  0.13219554  0.88352275    -0.13610
C1129       C  0.90967545  0.59008881  0.24959630     0.04350
C1130       C  0.90183361  0.59916411  0.29685472    -0.11800
C1131       C  0.88495008  0.61504005  0.29669801     0.01850
C1132       C  0.87645535  0.62279833  0.24944773    -0.10330
C1133       C  0.88439103  0.61438696  0.20225580     0.04340
C1134       C  0.90054621  0.59776536  0.20224195    -0.09750
H1135       H  0.90901570  0.59424109  0.33387663     0.09940
H1136       H  0.86365497  0.63538904  0.24940257     0.07470
H1137       H  0.90562011  0.59063553  0.16528190     0.07310
C1138       C  0.91232110  0.83557060  0.24800708     0.04350
C1139       C  0.90171182  0.81841419  0.20104903    -0.11800
C1140       C  0.88594950  0.78545569  0.20146040     0.01850
C1141       C  0.87971858  0.76921143  0.24871183    -0.10330
C1142       C  0.88964897  0.78573533  0.29559814     0.04340
C1143       C  0.90642957  0.81866518  0.29525042    -0.09750
H1144       H  0.90512038  0.83039576  0.16411874     0.09940
H1145       H  0.86697820  0.74368104  0.24901346     0.07470
H1146       H  0.91483696  0.83082389  0.33201405     0.07310
O1147       O  0.77023691  0.65994858  0.04050148    -0.84130
O1148       O  0.82602758  0.71233936  0.06651563    -0.81170
C1149       C  0.85521592  0.72980982  0.07251293     0.99330
O1150       O  0.87451162  0.72871261  0.04121695    -0.81210
O1151       O  0.87088665  0.67287809  0.06648212    -0.83850
C1152       C  0.85887104  0.64365398  0.07240398     1.03860
O1153       O  0.83846982  0.62446968  0.04093283    -0.76610
O1154       O  0.78617941  0.62778939  0.06628071    -0.76800
C1155       C  0.76899528  0.63967507  0.07218625     1.03810
O1156       O  0.78862428  0.67492284  0.43119320    -0.84120
O1157       O  0.84193092  0.73021045  0.45659923    -0.81190
C1158       C  0.86259493  0.73105107  0.42616801     0.99350
O1159       O  0.87374853  0.71333006  0.43313020    -0.81220
O1160       O  0.87488048  0.66009203  0.45895724    -0.83820
C1161       C  0.85561773  0.64030243  0.42681724     1.03830
O1162       O  0.82644983  0.62893341  0.43226414    -0.76640
O1163       O  0.77105510  0.62639626  0.45736943    -0.76790
C1164       C  0.77050943  0.64578369  0.42567866     1.03790
Cr1165     Cr  0.80735828  0.69212420  0.99926698     1.93740
Cr1166     Cr  0.87079053  0.69251451  0.50030626     1.93210
Cr1167     Cr  0.80743769  0.63055854  0.49917774     1.39100
O1168       O  0.82907211  0.67229077  0.49929057    -1.21880
C1169       C  0.66457254  0.59110458  0.25027709     0.04350
C1170       C  0.68163677  0.59945797  0.29745749    -0.11800
C1171       C  0.71460274  0.61617101  0.29699118     0.01850
C1172       C  0.73086430  0.62398482  0.24960436    -0.10330
C1173       C  0.71437565  0.61558336  0.20258691     0.04340
C1174       C  0.68146039  0.59968588  0.20280499    -0.09750
H1175       H  0.66951291  0.59272321  0.33462480     0.09940
H1176       H  0.75638673  0.63657276  0.24931702     0.07470
H1177       H  0.66923188  0.59432981  0.16585397     0.07310
O1178       O  0.64949064  0.78244352  0.45758360    -0.84130
O1179       O  0.70208951  0.83873573  0.43296978    -0.81130
C1180       C  0.71950840  0.86803758  0.42777050     0.99330
O1181       O  0.71858255  0.88681988  0.46028860    -0.81210
O1182       O  0.66337365  0.88392108  0.43422962    -0.83850
C1183       C  0.63427183  0.87208746  0.42746760     1.03860
O1184       O  0.61457426  0.85113933  0.45794457    -0.76610
O1185       O  0.61759859  0.79873282  0.43202475    -0.76800
C1186       C  0.62924235  0.78133364  0.42610355     1.03810
O1187       O  0.66169214  0.79770838  0.06677994    -0.84120
O1188       O  0.71760791  0.85051872  0.04198481    -0.81190
C1189       C  0.71860436  0.87058887  0.07379374     0.99350
O1190       O  0.70112322  0.88215984  0.06821881    -0.81220
O1191       O  0.64864631  0.88511818  0.04282778    -0.83820
C1192       C  0.62796977  0.86543646  0.07365680     1.03830
O1193       O  0.61624438  0.83632987  0.06700015    -0.76640
O1194       O  0.61339845  0.78113488  0.04059022    -0.76790
C1195       C  0.63246165  0.78013653  0.07238272     1.03790
Cr1196     Cr  0.68091049  0.81858779  0.99997915     1.93740
Cr1197     Cr  0.68099076  0.88100514  0.00108596     1.93210
Cr1198     Cr  0.61836945  0.81819034  0.99960410     1.39100
O1199       O  0.66009443  0.83927755  0.00021627    -1.21880
C1200       C  0.57907048  0.92119016  0.25020665     0.04350
C1201       C  0.58571687  0.91084591  0.20314900    -0.11800
C1202       C  0.60242939  0.89479250  0.20344045     0.01850
C1203       C  0.61204406  0.88824439  0.25068434    -0.10330
C1204       C  0.60533639  0.89796909  0.29770403     0.04340
C1205       C  0.58926990  0.91468001  0.29752831    -0.09750
H1206       H  0.57768005  0.91487778  0.16622928     0.09940
H1207       H  0.62473036  0.87553906  0.25086268     0.07470
H1208       H  0.58507399  0.92277773  0.33427027     0.07310
C1209       C  0.82417502  0.92345965  0.24982221     0.04350
C1210       C  0.80693767  0.91308716  0.20274273    -0.11800
C1211       C  0.77398330  0.89710556  0.20302793     0.01850
C1212       C  0.75761928  0.88976992  0.25019716    -0.10330
C1213       C  0.77401064  0.89910321  0.29715770     0.04340
C1214       C  0.80691987  0.91661320  0.29702995    -0.09750
H1215       H  0.81860325  0.91682716  0.16551851     0.09940
H1216       H  0.73209393  0.87669528  0.25036326     0.07470
H1217       H  0.81850845  0.92466567  0.33418957     0.07310
C1218       C  0.57866078  0.67559789  0.25042128     0.04350
C1219       C  0.58756640  0.69271866  0.29754668    -0.11800
C1220       C  0.60333303  0.72567400  0.29702723     0.01850
C1221       C  0.61108271  0.74188106  0.24958962    -0.10330
C1222       C  0.60278932  0.72532698  0.20260370     0.04340
C1223       C  0.58628814  0.69239360  0.20291810    -0.09750
H1224       H  0.58265330  0.68063957  0.33469654     0.09940
H1225       H  0.62362686  0.76740889  0.24923559     0.07470
H1226       H  0.57925796  0.68005808  0.16604944     0.07310
C1227       C  0.97783990  0.52231414  0.25008638     0.03510
C1228       C  0.51121345  0.53890686  0.25030197     0.03510
C1229       C  0.52781727  0.52234284  0.25033728     0.03510
C1230       C  0.51092765  0.98895999  0.24885792     0.03510
C1231       C  0.97761547  0.97230893  0.24992290     0.03510
C1232       C  0.96117795  0.98902049  0.25049255     0.03510
C1233       C  0.54912701  0.59090988  0.20947685    -0.12130
C1234       C  0.52876232  0.57396223  0.25063516     0.10020
C1235       C  0.52495430  0.59039785  0.29194052    -0.12130
C1236       C  0.54077716  0.62324925  0.29162202    -0.12130
C1237       C  0.56155338  0.64047070  0.25070037     0.10020
C1238       C  0.56571305  0.62376111  0.20987916    -0.12130
H1239       H  0.55232474  0.57864237  0.17716311     0.14010
H1240       H  0.00940522  0.57785915  0.32450474     0.14010
H1241       H  0.53631976  0.63503185  0.32320926     0.14010
H1242       H  0.58199170  0.63595938  0.17828667     0.14010
C1243       C  0.87653483  0.94324928  0.29584000    -0.12130
C1244       C  0.85963596  0.94069160  0.24983791     0.10020
C1245       C  0.87725522  0.95481678  0.20399614    -0.12130
C1246       C  0.91009911  0.96967357  0.20392570    -0.12130
C1247       C  0.92628218  0.97186038  0.24991088     0.10020
C1248       C  0.90932173  0.95948207  0.29608137    -0.12130
H1249       H  0.86493936  0.93263090  0.33216109     0.14010
H1250       H  0.86613720  0.95503573  0.16791217     0.14010
H1251       H  0.92227045  0.49067490  0.17577546     0.14010
H1252       H  0.92150522  0.96239751  0.33255928     0.14010
C1253       C  0.56484667  0.95861437  0.20804116    -0.12130
C1254       C  0.56156804  0.93861024  0.24989339     0.10020
C1255       C  0.54133827  0.93537504  0.29136320    -0.12130
C1256       C  0.52527248  0.95199475  0.29129161    -0.12130
C1257       C  0.52833469  0.97151231  0.24914399     0.10020
C1258       C  0.54804787  0.97448781  0.20735103    -0.12130
H1259       H  0.58062422  0.96233193  0.17590090     0.14010
H1260       H  0.53758281  0.91975750  0.32376488     0.14010
H1261       H  0.01032165  0.94960750  0.32434717     0.14010
H1262       H  0.50944610  0.44818173  0.17655253     0.14010
C1263       C  0.61172653  0.74246939  0.15415910    -0.12050
C1264       C  0.62064898  0.75871325  0.11560277    -0.13610
C1265       C  0.61167018  0.74323678  0.34498700    -0.12050
C1266       C  0.61928812  0.75983238  0.38305155    -0.13610
C1267       C  0.74065001  0.88031905  0.38420466    -0.12050
C1268       C  0.75677083  0.88980856  0.34554605    -0.13610
C1269       C  0.74006517  0.88044309  0.11681880    -0.12050
C1270       C  0.75656420  0.88818229  0.15496314    -0.13610
C1271       C  0.61486776  0.89037460  0.34600594    -0.12050
C1272       C  0.62335435  0.88257939  0.38438923    -0.13610
C1273       C  0.61766296  0.87639149  0.11695894    -0.12050
C1274       C  0.61001288  0.88502091  0.15535766    -0.13610
C1275       C  0.61244020  0.55248782  0.20973528    -0.12130
C1276       C  0.62942204  0.57342489  0.25045037     0.10020
C1277       C  0.61243818  0.57726623  0.29122257    -0.12130
C1278       C  0.57957371  0.56035691  0.29159725    -0.12130
C1279       C  0.56288701  0.54000026  0.25043446     0.10020
C1280       C  0.57960881  0.53642655  0.20931127    -0.12130
H1281       H  0.62438427  0.54812737  0.17826826     0.14010
H1282       H  0.62441241  0.59358044  0.32272020     0.14010
H1283       H  0.56709355  0.56336465  0.32381815     0.14010
H1284       H  0.56552318  0.02626671  0.32837835     0.14010
C1285       C  0.73155476  0.62317107  0.15420926    -0.12050
C1286       C  0.74774831  0.63014775  0.11563417    -0.13610
C1287       C  0.73214872  0.62546587  0.34494009    -0.12050
C1288       C  0.74884477  0.63440849  0.38287005    -0.13610
C1289       C  0.94665542  0.88844860  0.20444792    -0.12130
C1290       C  0.92892054  0.87077189  0.24795478     0.10020
C1291       C  0.92737304  0.88718034  0.29179087    -0.12130
C1292       C  0.94357971  0.91997434  0.29259718    -0.12130
C1293       C  0.96009911  0.93731120  0.24857513     0.10020
C1294       C  0.96163244  0.92131816  0.20450281    -0.12130
H1295       H  0.94946151  0.87709367  0.17048260     0.14010
H1296       H  0.91368461  0.87489531  0.32585470     0.14010
H1297       H  0.94357778  0.93180190  0.32805620     0.14010
H1298       H  0.47517520  0.93422676  0.17073847     0.14010
C1299       C  0.88176852  0.76860309  0.34409066    -0.12050
C1300       C  0.87354771  0.75244662  0.38280640    -0.13610
C1301       C  0.86671860  0.75135932  0.11547373    -0.12050
C1302       C  0.87579639  0.76792272  0.15355604    -0.13610
C1303       C  0.94811075  0.57668750  0.20889853    -0.12130
C1304       C  0.92722437  0.57270342  0.24973200     0.10020
C1305       C  0.92327782  0.55192084  0.29071387    -0.12130
C1306       C  0.94004907  0.53602254  0.29120277    -0.12130
C1307       C  0.96040873  0.53974740  0.25000187     0.10020
C1308       C  0.96413324  0.56003229  0.20868315    -0.12130
H1309       H  0.95243192  0.59292185  0.17722605     0.14010
H1310       H  0.90696315  0.54756068  0.32228029     0.14010
H1311       H  0.94099742  0.02420491  0.32695654     0.14010
H1312       H  0.47975752  0.56293792  0.17594777     0.14010
C1313       C  0.87601141  0.62320637  0.15397890    -0.12050
C1314       C  0.86852942  0.63199185  0.11558257    -0.13610
C1315       C  0.87595089  0.62328368  0.34493188    -0.12050
C1316       C  0.86713505  0.63063585  0.38344706    -0.13610
C1317       C  0.90949368  0.58962962  0.74950374     0.04350
C1318       C  0.90140187  0.59845794  0.79678670    -0.11800
C1319       C  0.88438329  0.61419752  0.79663237     0.01850
C1320       C  0.87599518  0.62206053  0.74940475    -0.10330
C1321       C  0.88418116  0.61391562  0.70221951     0.04340
C1322       C  0.90047687  0.59743335  0.70214998    -0.09750
H1323       H  0.90851350  0.59347912  0.83382567     0.09940
H1324       H  0.86310888  0.63456605  0.74937133     0.07470
H1325       H  0.90574163  0.59051479  0.66515373     0.07310
C1326       C  0.90948304  0.83555327  0.74992387     0.04350
C1327       C  0.90178954  0.81878113  0.70248678    -0.11800
C1328       C  0.88547181  0.78583038  0.70235938     0.01850
C1329       C  0.87737545  0.76926762  0.74946713    -0.10330
C1330       C  0.88516414  0.78547066  0.79679324     0.04340
C1331       C  0.90071273  0.81839729  0.79712474    -0.09750
H1332       H  0.90873081  0.83114168  0.66554100     0.09940
H1333       H  0.86503946  0.74374505  0.74929685     0.07470
H1334       H  0.90564040  0.83042675  0.83424077     0.07310
O1335       O  0.77165366  0.66196939  0.54003274    -0.84130
O1336       O  0.82760325  0.71415377  0.56550807    -0.81170
C1337       C  0.85678034  0.73109121  0.57227186     0.99330
O1338       O  0.87609859  0.72954797  0.54166028    -0.81210
O1339       O  0.87116963  0.67322456  0.56758359    -0.83850
C1340       C  0.85905772  0.64396813  0.57298195     1.03860
O1341       O  0.83881596  0.62506320  0.54104764    -0.76610
O1342       O  0.78684089  0.62919649  0.56602743    -0.76800
C1343       C  0.76992599  0.64141894  0.57168268     1.03810
O1344       O  0.78712458  0.67353784  0.93198449    -0.84120
O1345       O  0.83981473  0.72908015  0.95805804    -0.81190
C1346       C  0.86004833  0.73012814  0.92647608     0.99350
O1347       O  0.87158433  0.71263169  0.93235531    -0.81220
O1348       O  0.87412611  0.65990165  0.95775924    -0.83820
C1349       C  0.85482803  0.63960444  0.92628197     1.03830
O1350       O  0.82564621  0.62786850  0.93217906    -0.76640
O1351       O  0.77017118  0.62495907  0.95739761    -0.76790
C1352       C  0.76947259  0.64437039  0.92589580     1.03790
Cr1353     Cr  0.80898982  0.69370510  0.49837426     1.93740
Cr1354     Cr  0.86962584  0.69196108  0.99944310     1.93210
Cr1355     Cr  0.80671200  0.62942552  0.99920913     1.39100
O1356       O  0.82790862  0.67116496  0.99931326    -1.21880
C1357       C  0.66468068  0.59101160  0.74901167     0.04350
C1358       C  0.68166525  0.59885316  0.79621815    -0.11800
C1359       C  0.71460873  0.61561559  0.79593875     0.01850
C1360       C  0.73097167  0.62403855  0.74862104    -0.10330
C1361       C  0.71457528  0.61612985  0.70147795     0.04340
C1362       C  0.68162547  0.60007188  0.70158447    -0.09750
H1363       H  0.66947125  0.59170528  0.83329941     0.09940
H1364       H  0.75649447  0.63672785  0.74848471     0.07470
H1365       H  0.66940368  0.59499910  0.66464964     0.07310
O1366       O  0.64896526  0.78191793  0.95786371    -0.84130
O1367       O  0.70170455  0.83797733  0.93321354    -0.81130
C1368       C  0.71918914  0.86724083  0.92774950     0.99330
O1369       O  0.71799814  0.88623432  0.95952676    -0.81210
O1370       O  0.66254183  0.88312492  0.93397880    -0.83850
C1371       C  0.63338926  0.87118874  0.92759822     1.03860
O1372       O  0.61391968  0.85050884  0.95860067    -0.76610
O1373       O  0.61722352  0.79836315  0.93213418    -0.76800
C1374       C  0.62886094  0.78096360  0.92619563     1.03810
O1375       O  0.66208744  0.79798689  0.56643539    -0.84120
O1376       O  0.71798975  0.85100558  0.54200299    -0.81190
C1377       C  0.71880315  0.87084256  0.57416847     0.99350
O1378       O  0.70124141  0.88233032  0.56876434    -0.81220
O1379       O  0.64909188  0.88570846  0.54263418    -0.83820
C1380       C  0.62840082  0.86609678  0.57343421     1.03830
O1381       O  0.61655397  0.83697234  0.56672540    -0.76640
O1382       O  0.61374602  0.78172316  0.54066487    -0.76790
C1383       C  0.63283723  0.78052356  0.57218213     1.03790
Cr1384     Cr  0.68135053  0.81910942  0.49976165     1.93740
Cr1385     Cr  0.68146977  0.88150532  0.50142724     1.93210
Cr1386     Cr  0.61877957  0.81874260  0.49938092     1.39100
O1387       O  0.66049875  0.83976829  0.50019090    -1.21880
C1388       C  0.57878504  0.92093135  0.75047584     0.04350
C1389       C  0.58736795  0.91257469  0.70318213    -0.11800
C1390       C  0.60325391  0.89569126  0.70335664     0.01850
C1391       C  0.61163534  0.88781507  0.75058380    -0.10330
C1392       C  0.60378092  0.89629799  0.79775702     0.04340
C1393       C  0.58703780  0.91232543  0.79782393    -0.09750
H1394       H  0.58209327  0.91935948  0.66608625     0.09940
H1395       H  0.62427853  0.87506582  0.75062630     0.07470
H1396       H  0.58026333  0.91767538  0.83487997     0.07310
C1397       C  0.82415481  0.92119912  0.75014014     0.04350
C1398       C  0.80706133  0.91222180  0.70301716    -0.11800
C1399       C  0.77412460  0.89641747  0.70350590     0.01850
C1400       C  0.75788385  0.88868251  0.75091157    -0.10330
C1401       C  0.77439478  0.89702176  0.79792423     0.04340
C1402       C  0.80733183  0.91356107  0.79764324    -0.09750
H1403       H  0.81914836  0.91711594  0.66587075     0.09940
H1404       H  0.73236229  0.87612274  0.75121913     0.07470
H1405       H  0.81964320  0.92062843  0.83451786     0.07310
C1406       C  0.57876748  0.67567292  0.75003937     0.04350
C1407       C  0.58757335  0.69278698  0.79716046    -0.11800
C1408       C  0.60331383  0.72573055  0.79666489     0.01850
C1409       C  0.61115958  0.74196632  0.74924763    -0.10330
C1410       C  0.60299981  0.72544007  0.70222471     0.04340
C1411       C  0.58651181  0.69249019  0.70252390    -0.09750
H1412       H  0.58261478  0.68071253  0.83431990     0.09940
H1413       H  0.62368469  0.76749363  0.74893948     0.07470
H1414       H  0.57957773  0.68016386  0.66564301     0.07310
C1415       C  0.97802243  0.52219366  0.74994523     0.03510
C1416       C  0.51134483  0.53893462  0.75037381     0.03510
C1417       C  0.52793013  0.52235543  0.75024601     0.03510
C1418       C  0.51080859  0.98900796  0.75033515     0.03510
C1419       C  0.97740691  0.97229480  0.74996741     0.03510
C1420       C  0.96083936  0.98888611  0.74974550     0.03510
C1421       C  0.54923397  0.59092027  0.70936172    -0.12130
C1422       C  0.52891250  0.57400447  0.75059419     0.10020
C1423       C  0.52513755  0.59049048  0.79185309    -0.12130
C1424       C  0.54091589  0.62334089  0.79139157    -0.12130
C1425       C  0.56165566  0.64053343  0.75039847     0.10020
C1426       C  0.56580157  0.62377812  0.70964328    -0.12130
H1427       H  0.55240644  0.57862442  0.67706790     0.14010
H1428       H  0.00960812  0.57785225  0.82394874     0.14010
H1429       H  0.53644619  0.63513879  0.82293701     0.14010
H1430       H  0.58204956  0.63594262  0.67800110     0.14010
C1431       C  0.87605702  0.93439623  0.79063281    -0.12130
C1432       C  0.85927977  0.93840470  0.74979753     0.10020
C1433       C  0.87643351  0.95909976  0.70873832    -0.12130
C1434       C  0.90927552  0.97495989  0.70827429    -0.12130
C1435       C  0.92578312  0.97130423  0.74958804     0.10020
C1436       C  0.90890412  0.95103789  0.79089934    -0.12130
H1437       H  0.86391722  0.91819101  0.82233597     0.14010
H1438       H  0.86460774  0.96346157  0.67713389     0.14010
H1439       H  0.92234269  0.49055424  0.67607902     0.14010
H1440       H  0.92122246  0.94795417  0.82322703     0.14010
C1441       C  0.54068523  0.93469618  0.70943723    -0.12130
C1442       C  0.56133195  0.93845994  0.75042246     0.10020
C1443       C  0.56508905  0.95914733  0.79137127    -0.12130
C1444       C  0.54833861  0.97507514  0.79173118    -0.12130
C1445       C  0.52824730  0.97157079  0.75036785     0.10020
C1446       C  0.52477322  0.95146002  0.70902220    -0.12130
H1447       H  0.53640781  0.91852932  0.67778285     0.14010
H1448       H  0.58122944  0.96343227  0.82304842     0.14010
H1449       H  0.05153844  0.99083538  0.82352036     0.14010
H1450       H  0.50937097  0.44809374  0.67695568     0.14010
C1451       C  0.61203775  0.74264310  0.65379041    -0.12050
C1452       C  0.62101467  0.75898462  0.61531344    -0.13610
C1453       C  0.61154618  0.74322132  0.84467682    -0.12050
C1454       C  0.61905158  0.75964775  0.88292604    -0.13610
C1455       C  0.74077897  0.87916563  0.88472499    -0.12050
C1456       C  0.75717741  0.88811521  0.84632505    -0.13610
C1457       C  0.74016881  0.88056081  0.61733289    -0.12050
C1458       C  0.75663617  0.88808175  0.65551221    -0.13610
C1459       C  0.61314494  0.88845766  0.84598031    -0.12050
C1460       C  0.62207371  0.88114078  0.88436664    -0.13610
C1461       C  0.61835332  0.87724623  0.61680059    -0.12050
C1462       C  0.61104639  0.88620226  0.65518925    -0.13610
C1463       C  0.61243722  0.55257920  0.70855252    -0.12130
C1464       C  0.62953792  0.57342799  0.74927610     0.10020
C1465       C  0.61268966  0.57723223  0.79032378    -0.12130
C1466       C  0.57983423  0.56033519  0.79101447    -0.12130
C1467       C  0.56300413  0.53999276  0.74993537     0.10020
C1468       C  0.57958485  0.53645192  0.70851892    -0.12130
H1469       H  0.62432118  0.54834103  0.67683184     0.14010
H1470       H  0.62477760  0.59350818  0.82182076     0.14010
H1471       H  0.56746924  0.56333027  0.82343324     0.14010
H1472       H  0.56723462  0.02100551  0.67810959     0.14010
C1473       C  0.73191294  0.62440020  0.65314157    -0.12050
C1474       C  0.74835040  0.63182015  0.61476662    -0.13610
C1475       C  0.73194574  0.62443568  0.84410532    -0.12050
C1476       C  0.74821615  0.63304163  0.88254386    -0.13610
C1477       C  0.94743251  0.88775089  0.79104287    -0.12130
C1478       C  0.92671096  0.87069264  0.75015644     0.10020
C1479       C  0.92277054  0.88758486  0.70936460    -0.12130
C1480       C  0.93950554  0.92044582  0.70897544    -0.12130
C1481       C  0.95977863  0.93722369  0.75014744     0.10020
C1482       C  0.96335426  0.92059721  0.79141938    -0.12130
H1483       H  0.95178359  0.87585415  0.82258481     0.14010
H1484       H  0.90656332  0.87552929  0.67778285     0.14010
H1485       H  0.93648098  0.93285278  0.67667172     0.14010
H1486       H  0.47865642  0.93248491  0.82250866     0.14010
C1487       C  0.87724461  0.76798309  0.84489572    -0.12050
C1488       C  0.86995730  0.75155245  0.88322343    -0.13610
C1489       C  0.86821805  0.75243611  0.61551808    -0.12050
C1490       C  0.87678623  0.76867395  0.65400719    -0.13610
C1491       C  0.94813932  0.57647325  0.70884270    -0.12130
C1492       C  0.92717867  0.57237222  0.74962853     0.10020
C1493       C  0.92328182  0.55158389  0.79057085    -0.12130
C1494       C  0.94017209  0.53581072  0.79108935    -0.12130
C1495       C  0.96057164  0.53961411  0.74990889     0.10020
C1496       C  0.96425343  0.55990465  0.70861956    -0.12130
H1497       H  0.95243968  0.59271894  0.67720046     0.14010
H1498       H  0.90691044  0.54711181  0.82209129     0.14010
H1499       H  0.93677636  0.02059923  0.82330967     0.14010
H1500       H  0.47980025  0.56295415  0.67643535     0.14010
C1501       C  0.87593090  0.62292750  0.65404273    -0.12050
C1502       C  0.86852129  0.63196564  0.61589352    -0.13610
C1503       C  0.87523146  0.62233163  0.84480978    -0.12050
C1504       C  0.86634031  0.62977081  0.88313049    -0.13610
loop_ 
_geom_bond_atom_site_label_1 
_geom_bond_atom_site_label_2 
_geom_bond_distance 
_geom_bond_site_symmetry_2 
_ccdc_geom_bond_type 
C1            C2   1.414       .  A
C1            C6   1.413       .  A
C1          C176   1.498       .  S
C2            C3   1.401       .  A
C2            H7   1.082       .  S
C3            C4   1.397       .  A
C3          C187   1.441       .  S
C4            C5   1.396       .  A
C4            H8   1.085       .  S
C5            C6   1.400       .  A
C5          C185   1.440       .  S
C6            H9   1.082       .  S
C10          C11   1.412       .  A
C10          C15   1.411       .  A
C10         C162   1.494       .  S
C11          C12   1.401       .  A
C11          H16   1.083       .  S
C12          C13   1.397       .  A
C12         C174   1.440       .  S
C13          C14   1.396       .  A
C13          H17   1.085       .  S
C14          C15   1.399       .  A
C14         C171   1.439       .  S
C15          H18   1.083       .  S
O19         Cr37   2.013       .  S
O19          C27   1.265       .  A
O20         Cr37   1.975       .  S
O20          C21   1.258       .  A
C21         C173   1.435       .  S
C21          O22   1.264       .  A
O22        Cr226   2.010       .  S
O23        Cr226   1.975       .  S
O23          C24   1.258       .  A
C24         C186   1.435       .  S
C24          O25   1.265       .  A
O25        Cr227   2.010   1_554  S
O26        Cr227   1.970   1_554  S
O26          C27   1.257       .  A
C27         C158   1.434       .  S
O28        Cr225   1.973       .  S
O28          C36   1.257       .  A
O29        Cr225   2.009       .  S
O29          C30   1.264       .  A
C30         C172   1.433       .  S
C30          O31   1.258       .  A
O31         Cr38   1.974       .  S
O32         Cr38   2.011       .  S
O32          C33   1.264       .  A
C33         C188   1.436       .  S
C33          O34   1.258       .  A
O34         Cr39   1.976       .  S
O35         Cr39   2.012       .  S
O35          C36   1.265       .  A
C36         C160   1.434       .  S
Cr37        O216   1.974   1_554  S
Cr37        O217   2.012   1_554  S
Cr37        O228   1.773       .  S
Cr38        O210   2.011       .  S
Cr38        O211   1.974       .  S
Cr38         O40   1.774       .  S
Cr39        O213   2.011       .  S
Cr39        O214   1.976       .  S
Cr39         O40   1.773       .  S
O40        Cr225   1.774       .  S
C41          C42   1.413       .  A
C41          C46   1.413       .  A
C41         C148   1.498       .  S
C42          C43   1.401       .  A
C42          H47   1.082       .  S
C43          C44   1.396       .  A
C43         C159   1.439       .  S
C44          C45   1.396       .  A
C44          H48   1.085       .  S
C45          C46   1.399       .  A
C45         C157   1.439       .  S
C46          H49   1.082       .  S
O50        Cr256   2.009       .  S
O50          C58   1.264       .  A
O51        Cr256   1.974       .  S
O51          C52   1.258       .  A
C52         C139   1.434       .  S
C52          O53   1.264       .  A
O53        Cr257   2.009       .  S
O54        Cr257   1.976       .  S
O54          C55   1.258       .  A
C55         C144   1.435       .  S
C55          O56   1.264       .  A
O56        Cr258   2.010       .  S
O57        Cr258   1.975       .  S
O57          C58   1.258       .  A
C58         C138   1.434       .  S
O59         Cr68   1.976       .  S
O59          C67   1.258       .  A
O60         Cr68   2.009       .  S
O60          C61   1.264       .  A
C61         C141   1.434       .  S
C61          O62   1.258       .  A
O62         Cr69   1.975       .  S
O63         Cr69   2.010       .  S
O63          C64   1.264       .  A
C64         C145   1.435       .  S
C64          O65   1.258       .  A
O65         Cr70   1.974   1_554  S
O66         Cr70   2.008   1_554  S
O66          C67   1.264       .  A
C67         C136   1.434       .  S
Cr68        O238   2.010   1_554  S
Cr68        O239   1.975   1_554  S
Cr68         O71   1.774       .  S
Cr69        O241   2.010   1_554  S
Cr69        O242   1.975   1_554  S
Cr69         O71   1.774       .  S
Cr70        O244   2.008       .  S
Cr70        O245   1.975       .  S
Cr70         O71   1.774   1_556  S
C72          C73   1.412       .  A
C72          C77   1.412       .  A
C72         C126   1.494       .  S
C73          C74   1.400       .  A
C73          H78   1.083       .  S
C74          C75   1.397       .  A
C74         C146   1.440       .  S
C75          C76   1.397       .  A
C75          H79   1.085       .  S
C76          C77   1.401       .  A
C76         C143   1.440       .  S
C77          H80   1.083       .  S
C81          C82   1.412       .  A
C81          C86   1.411       .  A
C81         C116   1.493       .  S
C82          C83   1.401       .  A
C82          H87   1.083       .  S
C83          C84   1.397       .  A
C83         C142   1.439       .  S
C84          C85   1.396       .  A
C84          H88   1.085       .  S
C85          C86   1.400       .  A
C85         C140   1.439       .  S
C86          H89   1.083       .  S
C90          C91   1.415       .  A
C90          C95   1.416       .  A
C90         C109   1.505       .  S
C91          C92   1.401       .  A
C91          H96   1.080       .  S
C92          C93   1.395       .  A
C92         C137   1.439       .  S
C93          C94   1.394       .  A
C93          H97   1.085       .  S
C94          C95   1.399       .  A
C94         C135   1.439       .  S
C95          H98   1.080       .  S
C99         C852   1.413       .  A
C99         C480   1.413   1_545  A
C99         C179   1.489       .  S
C100        C101   1.416       .  A
C100        C851   1.413   1_455  A
C100        C106   1.484       .  S
C101        C478   1.415   1_545  A
C101        C151   1.486       .  S
C102        C477   1.417       .  A
C102        C855   1.417   1_455  A
C102        C129   1.491       .  S
C103        C104   1.417       .  A
C103        C854   1.418       .  A
C103        C165   1.491       .  S
C104        C475   1.417       .  A
C104        C119   1.490       .  S
C105        C106   1.398       .  A
C105        C110   1.394       .  A
C105        H111   1.082       .  S
C106        C107   1.399       .  A
C107        C108   1.398       .  A
C107        H864   1.083       .  S
C108        C109   1.414       .  A
C108        H113   1.079       .  S
C109        C110   1.413       .  A
C110        H114   1.079       .  S
H112        C859   1.083       .  S
C115        C116   1.409       .  A
C115        C120   1.396       .  A
C115        H121   1.082       .  S
C116        C117   1.409       .  A
C117        C118   1.396       .  A
C117        H122   1.082       .  S
C118        C119   1.402       .  A
C118        H499   1.083       .  S
C119        C120   1.402       .  A
C120        H124   1.083       .  S
H123        C494   1.083       .  S
C125        C126   1.409       .  A
C125        C130   1.397       .  A
C125        H131   1.082       .  S
C126        C127   1.409       .  A
C127        C128   1.397       .  A
C127        H132   1.082       .  S
C128        C129   1.402       .  A
C128        H885   1.083       .  S
C129        C130   1.402       .  A
C130        H510   1.083       .  S
H133        C880   1.083       .  S
H134        C506   1.083       .  S
C135        C136   1.205       .  T
C137        C138   1.205       .  T
C139        C140   1.205       .  T
C141        C142   1.206       .  T
C143        C144   1.206       .  T
C145        C146   1.206       .  T
C147        C148   1.412       .  A
C147        C152   1.399       .  A
C147        H153   1.081       .  S
C148        C149   1.410       .  A
C149        C150   1.394       .  A
C149        H154   1.081       .  S
C150        C151   1.399       .  A
C150        H155   1.081       .  S
C151        C152   1.401       .  A
C152        H532   1.083       .  S
H156        C528   1.083       .  S
C157        C158   1.205       .  T
C159        C160   1.205       .  T
C161        C162   1.409       .  A
C161        C166   1.396       .  A
C161        H167   1.082       .  S
C162        C163   1.409       .  A
C163        C164   1.397       .  A
C163        H168   1.082       .  S
C164        C165   1.403       .  A
C164        H169   1.083       .  S
C165        C166   1.402       .  A
C166        H922   1.083       .  S
H170        C918   1.083       .  S
C171        C172   1.205       .  T
C173        C174   1.206       .  T
C175        C176   1.411       .  A
C175        C180   1.397       .  A
C175        H181   1.081       .  S
C176        C177   1.410       .  A
C177        C178   1.397       .  A
C177        H182   1.081       .  S
C178        C179   1.401       .  A
C178        H559   1.083       .  S
C179        C180   1.400       .  A
C180        H936   1.083       .  S
H183        C554   1.083       .  S
H184        C932   1.083       .  S
C185        C186   1.206       .  T
C187        C188   1.206       .  T
C189        C190   1.411       .  A
C189        C194   1.412       .  A
C189        C364   1.493       .  S
C190        C191   1.400       .  A
C190        H195   1.083       .  S
C191        C192   1.396       .  A
C191        C375   1.439       .  S
C192        C193   1.396       .  A
C192        H196   1.085       .  S
C193        C194   1.400       .  A
C193        C373   1.439       .  S
C194        H197   1.083       .  S
C198        C199   1.412       .  A
C198        C203   1.412       .  A
C198        C350   1.494       .  S
C199        C200   1.401       .  A
C199        H204   1.083       .  S
C200        C201   1.397       .  A
C200        C362   1.440       .  S
C201        C202   1.397       .  A
C201        H205   1.085       .  S
C202        C203   1.401       .  A
C202        C359   1.440       .  S
C203        H206   1.083       .  S
O207       Cr225   2.008       .  S
O207        C215   1.264       .  A
O208       Cr225   1.974       .  S
O208        C209   1.258       .  A
C209        C361   1.435       .  S
C209        O210   1.264       .  A
O211        C212   1.258       .  A
C212        C374   1.434       .  S
C212        O213   1.264       .  A
O214        C215   1.258       .  A
C215        C346   1.434       .  S
O216        C224   1.257       .  A
O217        C218   1.265       .  A
C218        C360   1.435       .  S
C218        O219   1.259       .  A
O219       Cr226   1.974   1_556  S
O220       Cr226   2.011   1_556  S
O220        C221   1.264       .  A
C221        C376   1.434       .  S
C221        O222   1.257       .  A
O222       Cr227   1.973       .  S
O223       Cr227   2.011       .  S
O223        C224   1.264       .  A
C224        C348   1.435       .  S
Cr226       O228   1.774       .  S
Cr227       O228   1.774   1_556  S
C229        C230   1.412       .  A
C229        C234   1.412       .  A
C229        C336   1.494       .  S
C230        C231   1.401       .  A
C230        H235   1.083       .  S
C231        C232   1.397       .  A
C231        C347   1.440       .  S
C232        C233   1.397       .  A
C232        H236   1.085       .  S
C233        C234   1.400       .  A
C233        C345   1.440       .  S
C234        H237   1.083       .  S
O238        C246   1.264       .  A
O239        C240   1.258       .  A
C240        C327   1.435       .  S
C240        O241   1.264       .  A
O242        C243   1.258       .  A
C243        C332   1.434       .  S
C243        O244   1.264       .  A
O245        C246   1.258       .  A
C246        C326   1.435       .  S
O247       Cr256   1.974       .  S
O247        C255   1.258       .  A
O248       Cr256   2.009       .  S
O248        C249   1.264       .  A
C249        C329   1.435       .  S
C249        O250   1.258       .  A
O250       Cr257   1.975       .  S
O251       Cr257   2.009       .  S
O251        C252   1.264       .  A
C252        C333   1.434       .  S
C252        O253   1.258       .  A
O253       Cr258   1.974       .  S
O254       Cr258   2.010       .  S
O254        C255   1.264       .  A
C255        C324   1.434       .  S
Cr256       O259   1.774       .  S
Cr257       O259   1.774       .  S
Cr258       O259   1.773       .  S
C260        C261   1.412       .  A
C260        C265   1.412       .  A
C260        C314   1.493       .  S
C261        C262   1.400       .  A
C261        H266   1.083       .  S
C262        C263   1.396       .  A
C262        C334   1.439       .  S
C263        C264   1.396       .  A
C263        H267   1.085       .  S
C264        C265   1.400       .  A
C264        C331   1.439       .  S
C265        H268   1.083       .  S
C269        C270   1.412       .  A
C269        C274   1.412       .  A
C269        C304   1.494       .  S
C270        C271   1.400       .  A
C270        H275   1.083       .  S
C271        C272   1.397       .  A
C271        C330   1.440       .  S
C272        C273   1.397       .  A
C272        H276   1.085       .  S
C273        C274   1.400       .  A
C273        C328   1.440       .  S
C274        H277   1.083       .  S
C278        C279   1.412       .  A
C278        C283   1.412       .  A
C278        C297   1.494       .  S
C279        C280   1.401       .  A
C279        H284   1.083       .  S
C280        C281   1.397       .  A
C280        C325   1.440       .  S
C281        C282   1.397       .  A
C281        H285   1.085       .  S
C282        C283   1.400       .  A
C282        C323   1.439       .  S
C283        H286   1.083       .  S
C287       C1040   1.416       .  A
C287        C668   1.416   1_545  A
C287        C367   1.489       .  S
C288       C1039   1.417   1_455  A
C288        C289   1.417       .  A
C288        C294   1.490       .  S
C289        C666   1.417   1_545  A
C289        C339   1.490       .  S
C290        C665   1.418       .  A
C290       C1043   1.417   1_455  A
C290        C317   1.490       .  S
C291       C1042   1.418       .  A
C291        C292   1.417       .  A
C291        C353   1.491       .  S
C292        C663   1.417       .  A
C292        C307   1.490       .  S
C293        C294   1.402       .  A
C293        C298   1.396       .  A
C293        H299   1.083       .  S
C294        C295   1.402       .  A
C295        C296   1.396       .  A
C295       H1052   1.083       .  S
C296        C297   1.409       .  A
C296        H301   1.082       .  S
C297        C298   1.409       .  A
C298        H302   1.082       .  S
H300       C1047   1.083       .  S
C303        C304   1.409       .  A
C303        C308   1.396       .  A
C303        H309   1.082       .  S
C304        C305   1.409       .  A
C305        C306   1.396       .  A
C305        H310   1.082       .  S
C306        C307   1.402       .  A
C306        H687   1.083       .  S
C307        C308   1.402       .  A
C308        H312   1.083       .  S
H311        C682   1.083       .  S
C313        C314   1.409       .  A
C313        C318   1.396       .  A
C313        H319   1.082       .  S
C314        C315   1.409       .  A
C315        C316   1.396       .  A
C315        H320   1.082       .  S
C316        C317   1.402       .  A
C316       H1073   1.083       .  S
C317        C318   1.402       .  A
C318        H698   1.083       .  S
H321       C1068   1.083       .  S
H322        C694   1.083       .  S
C323        C324   1.205       .  T
C325        C326   1.206       .  T
C327        C328   1.206       .  T
C329        C330   1.206       .  T
C331        C332   1.205       .  T
C333        C334   1.205       .  T
C335        C336   1.409       .  A
C335        C340   1.396       .  A
C335        H341   1.082       .  S
C336        C337   1.409       .  A
C337        C338   1.397       .  A
C337        H342   1.082       .  S
C338        C339   1.402       .  A
C338        H343   1.083       .  S
C339        C340   1.402       .  A
C340        H720   1.083       .  S
H344        C716   1.083       .  S
C345        C346   1.206       .  T
C347        C348   1.206       .  T
C349        C350   1.409       .  A
C349        C354   1.397       .  A
C349        H355   1.082       .  S
C350        C351   1.409       .  A
C351        C352   1.397       .  A
C351        H356   1.082       .  S
C352        C353   1.402       .  A
C352        H357   1.083       .  S
C353        C354   1.402       .  A
C354       H1110   1.083       .  S
H358       C1106   1.083       .  S
C359        C360   1.206       .  T
C361        C362   1.206       .  T
C363        C364   1.409       .  A
C363        C368   1.396       .  A
C363        H369   1.082       .  S
C364        C365   1.409       .  A
C365        C366   1.396       .  A
C365        H370   1.082       .  S
C366        C367   1.402       .  A
C366        H747   1.083       .  S
C367        C368   1.402       .  A
C368       H1124   1.083       .  S
H371        C742   1.083       .  S
H372       C1120   1.083       .  S
C373        C374   1.205       .  T
C375        C376   1.205       .  T
C377        C378   1.411       .  A
C377        C382   1.412       .  A
C377        C552   1.494       .  S
C378        C379   1.400       .  A
C378        H383   1.083       .  S
C379        C380   1.397       .  A
C379        C563   1.440       .  S
C380        C381   1.397       .  A
C380        H384   1.085       .  S
C381        C382   1.401       .  A
C381        C561   1.441       .  S
C382        H385   1.083       .  S
C386        C387   1.412       .  A
C386        C391   1.413       .  A
C386        C538   1.497       .  S
C387        C388   1.401       .  A
C387        H392   1.082       .  S
C388        C389   1.397       .  A
C388        C550   1.440       .  S
C389        C390   1.396       .  A
C389        H393   1.085       .  S
C390        C391   1.400       .  A
C390        C547   1.440       .  S
C391        H394   1.082       .  S
O395       Cr413   2.008   1_554  S
O395        C403   1.263       .  A
O396       Cr413   1.974   1_554  S
O396        C397   1.258       .  A
C397        C549   1.435       .  S
C397        O398   1.265       .  A
O398       Cr602   2.012   1_554  S
O399       Cr602   1.976   1_554  S
O399        C400   1.258       .  A
C400        C562   1.436       .  S
C400        O401   1.265       .  A
O401       Cr603   2.011   1_554  S
O402       Cr603   1.974   1_554  S
O402        C403   1.258       .  A
C403        C534   1.433       .  S
O404       Cr601   1.974       .  S
O404        C412   1.257       .  A
O405       Cr601   2.013       .  S
O405        C406   1.265       .  A
C406        C548   1.435       .  S
C406        O407   1.257       .  A
O407       Cr414   1.971       .  S
O408       Cr414   2.012       .  S
O408        C409   1.265       .  A
C409        C564   1.435       .  S
C409        O410   1.258       .  A
O410       Cr415   1.974       .  S
O411       Cr415   2.009       .  S
O411        C412   1.264       .  A
C412        C536   1.434       .  S
Cr413       O592   1.974       .  S
Cr413       O593   2.008       .  S
Cr413       O604   1.774       .  S
Cr414       O586   2.012       .  S
Cr414       O587   1.974       .  S
Cr414       O416   1.774       .  S
Cr415       O589   2.010       .  S
Cr415       O590   1.974       .  S
Cr415       O416   1.774       .  S
O416       Cr601   1.774       .  S
C417        C418   1.412       .  A
C417        C422   1.411       .  A
C417        C524   1.493       .  S
C418        C419   1.401       .  A
C418        H423   1.083       .  S
C419        C420   1.396       .  A
C419        C535   1.439       .  S
C420        C421   1.396       .  A
C420        H424   1.085       .  S
C421        C422   1.400       .  A
C421        C533   1.438       .  S
C422        H425   1.083       .  S
O426       Cr632   2.010       .  S
O426        C434   1.264       .  A
O427       Cr632   1.976       .  S
O427        C428   1.258       .  A
C428        C515   1.434       .  S
C428        O429   1.264       .  A
O429       Cr633   2.008       .  S
O430       Cr633   1.972       .  S
O430        C431   1.257       .  A
C431        C520   1.435       .  S
C431        O432   1.265       .  A
O432       Cr634   2.012       .  S
O433       Cr634   1.976       .  S
O433        C434   1.258       .  A
C434        C514   1.435       .  S
O435       Cr444   1.974       .  S
O435        C443   1.258       .  A
O436       Cr444   2.009       .  S
O436        C437   1.264       .  A
C437        C517   1.434       .  S
C437        O438   1.258       .  A
O438       Cr445   1.975       .  S
O439       Cr445   2.011       .  S
O439        C440   1.265       .  A
C440        C521   1.434       .  S
C440        O441   1.257       .  A
O441       Cr446   1.973   1_554  S
O442       Cr446   2.009   1_554  S
O442        C443   1.264       .  A
C443        C512   1.434       .  S
Cr444       O614   2.010   1_554  S
Cr444       O615   1.974   1_554  S
Cr444       O447   1.773       .  S
Cr445       O617   2.011   1_554  S
Cr445       O618   1.974   1_554  S
Cr445       O447   1.773       .  S
Cr446       O620   2.009       .  S
Cr446       O621   1.974       .  S
Cr446       O447   1.774   1_556  S
C448        C449   1.411       .  A
C448        C453   1.411       .  A
C448        C502   1.492       .  S
C449        C450   1.400       .  A
C449        H454   1.083       .  S
C450        C451   1.397       .  A
C450        C522   1.440       .  S
C451        C452   1.397       .  A
C451        H455   1.085       .  S
C452        C453   1.401       .  A
C452        C519   1.440       .  S
C453        H456   1.083       .  S
C457        C458   1.417       .  A
C457        C462   1.417       .  A
C457        C492   1.509       .  S
C458        C459   1.401       .  A
C458        H463   1.080       .  S
C459        C460   1.394       .  A
C459        C518   1.440       .  S
C460        C461   1.394       .  A
C460        H464   1.085       .  S
C461        C462   1.399       .  A
C461        C516   1.440       .  S
C462        H465   1.079       .  S
C466        C467   1.412       .  A
C466        C471   1.411       .  A
C466        C485   1.493       .  S
C467        C468   1.401       .  A
C467        H472   1.083       .  S
C468        C469   1.397       .  A
C468        C513   1.440       .  S
C469        C470   1.397       .  A
C469        H473   1.085       .  S
C470        C471   1.399       .  A
C470        C511   1.439       .  S
C471        H474   1.083       .  S
C475       C1228   1.417       .  A
C475        C555   1.491       .  S
C476       C1227   1.416   1_455  A
C476        C477   1.417       .  A
C476        C482   1.490       .  S
C477        C527   1.489       .  S
C478       C1231   1.416   1_455  A
C478        C505   1.489       .  S
C479       C1230   1.416       .  A
C479        C480   1.416       .  A
C479        C541   1.488       .  S
C480        C495   1.484       .  S
C481        C482   1.402       .  A
C481        C486   1.396       .  A
C481        H487   1.083       .  S
C482        C483   1.402       .  A
C483        C484   1.397       .  A
C483       H1240   1.083       .  S
C484        C485   1.409       .  A
C484        H489   1.082       .  S
C485        C486   1.409       .  A
C486        H490   1.082       .  S
H488       C1235   1.083       .  S
C491        C492   1.414       .  A
C491        C496   1.394       .  A
C491        H497   1.078       .  S
C492        C493   1.416       .  A
C493        C494   1.399       .  A
C493        H498   1.079       .  S
C494        C495   1.398       .  A
C495        C496   1.397       .  A
C496        H500   1.082       .  S
C501        C502   1.409       .  A
C501        C506   1.396       .  A
C501        H507   1.082       .  S
C502        C503   1.409       .  A
C503        C504   1.397       .  A
C503        H508   1.082       .  S
C504        C505   1.402       .  A
C504       H1261   1.083       .  S
C505        C506   1.402       .  A
H509       C1256   1.083       .  S
C511        C512   1.205       .  T
C513        C514   1.206       .  T
C515        C516   1.205       .  T
C517        C518   1.205       .  T
C519        C520   1.206       .  T
C521        C522   1.206       .  T
C523        C524   1.409       .  A
C523        C528   1.396       .  A
C523        H529   1.082       .  S
C524        C525   1.409       .  A
C525        C526   1.396       .  A
C525        H530   1.082       .  S
C526        C527   1.402       .  A
C526        H531   1.083       .  S
C527        C528   1.402       .  A
C533        C534   1.205       .  T
C535        C536   1.205       .  T
C537        C538   1.411       .  A
C537        C542   1.399       .  A
C537        H543   1.081       .  S
C538        C539   1.409       .  A
C539        C540   1.394       .  A
C539        H544   1.081       .  S
C540        C541   1.400       .  A
C540        H545   1.080       .  S
C541        C542   1.402       .  A
C542       H1298   1.083       .  S
H546       C1294   1.083       .  S
C547        C548   1.206       .  T
C549        C550   1.206       .  T
C551        C552   1.409       .  A
C551        C556   1.397       .  A
C551        H557   1.082       .  S
C552        C553   1.409       .  A
C553        C554   1.396       .  A
C553        H558   1.082       .  S
C554        C555   1.402       .  A
C555        C556   1.402       .  A
C556       H1312   1.083       .  S
H560       C1308   1.083       .  S
C561        C562   1.207       .  T
C563        C564   1.206       .  T
C565        C566   1.411       .  A
C565        C570   1.412       .  A
C565        C740   1.493       .  S
C566        C567   1.400       .  A
C566        H571   1.083       .  S
C567        C568   1.396       .  A
C567        C751   1.439       .  S
C568        C569   1.396       .  A
C568        H572   1.085       .  S
C569        C570   1.401       .  A
C569        C749   1.439       .  S
C570        H573   1.083       .  S
C574        C575   1.412       .  A
C574        C579   1.412       .  A
C574        C726   1.494       .  S
C575        C576   1.401       .  A
C575        H580   1.083       .  S
C576        C577   1.397       .  A
C576        C738   1.440       .  S
C577        C578   1.397       .  A
C577        H581   1.085       .  S
C578        C579   1.400       .  A
C578        C735   1.440       .  S
C579        H582   1.083       .  S
O583       Cr601   2.012       .  S
O583        C591   1.265       .  A
O584       Cr601   1.973       .  S
O584        C585   1.257       .  A
C585        C737   1.435       .  S
C585        O586   1.265       .  A
O587        C588   1.257       .  A
C588        C750   1.434       .  S
C588        O589   1.264       .  A
O590        C591   1.259       .  A
C591        C722   1.435       .  S
O592        C600   1.258       .  A
O593        C594   1.263       .  A
C594        C736   1.435       .  S
C594        O595   1.258       .  A
O595       Cr602   1.977       .  S
O596       Cr602   2.010       .  S
O596        C597   1.264       .  A
C597        C752   1.434       .  S
C597        O598   1.258       .  A
O598       Cr603   1.974       .  S
O599       Cr603   2.011       .  S
O599        C600   1.265       .  A
C600        C724   1.435       .  S
Cr602       O604   1.773       .  S
Cr603       O604   1.774       .  S
C605        C606   1.412       .  A
C605        C610   1.412       .  A
C605        C712   1.494       .  S
C606        C607   1.401       .  A
C606        H611   1.083       .  S
C607        C608   1.397       .  A
C607        C723   1.440       .  S
C608        C609   1.397       .  A
C608        H612   1.085       .  S
C609        C610   1.400       .  A
C609        C721   1.440       .  S
C610        H613   1.083       .  S
O614        C622   1.264       .  A
O615        C616   1.258       .  A
C616        C703   1.434       .  S
C616        O617   1.265       .  A
O618        C619   1.258       .  A
C619        C708   1.434       .  S
C619        O620   1.264       .  A
O621        C622   1.258       .  A
C622        C702   1.434       .  S
O623       Cr632   1.975       .  S
O623        C631   1.259       .  A
O624       Cr632   2.011       .  S
O624        C625   1.264       .  A
C625        C705   1.434       .  S
C625        O626   1.258       .  A
O626       Cr633   1.974       .  S
O627       Cr633   2.008       .  S
O627        C628   1.263       .  A
C628        C709   1.434       .  S
C628        O629   1.258       .  A
O629       Cr634   1.975       .  S
O630       Cr634   2.011       .  S
O630        C631   1.265       .  A
C631        C700   1.435       .  S
Cr632       O635   1.774       .  S
Cr633       O635   1.774       .  S
Cr634       O635   1.773       .  S
C636        C637   1.412       .  A
C636        C641   1.412       .  A
C636        C690   1.493       .  S
C637        C638   1.400       .  A
C637        H642   1.083       .  S
C638        C639   1.397       .  A
C638        C710   1.439       .  S
C639        C640   1.397       .  A
C639        H643   1.085       .  S
C640        C641   1.400       .  A
C640        C707   1.439       .  S
C641        H644   1.083       .  S
C645        C646   1.411       .  A
C645        C650   1.412       .  A
C645        C680   1.493       .  S
C646        C647   1.400       .  A
C646        H651   1.083       .  S
C647        C648   1.397       .  A
C647        C706   1.439       .  S
C648        C649   1.397       .  A
C648        H652   1.085       .  S
C649        C650   1.400       .  A
C649        C704   1.439       .  S
C650        H653   1.083       .  S
C654        C655   1.412       .  A
C654        C659   1.412       .  A
C654        C673   1.493       .  S
C655        C656   1.400       .  A
C655        H660   1.083       .  S
C656        C657   1.397       .  A
C656        C701   1.440       .  S
C657        C658   1.397       .  A
C657        H661   1.085       .  S
C658        C659   1.400       .  A
C658        C699   1.440       .  S
C659        H662   1.083       .  S
C663       C1416   1.417       .  A
C663        C743   1.490       .  S
C664       C1415   1.417   1_455  A
C664        C665   1.417       .  A
C664        C670   1.490       .  S
C665        C715   1.491       .  S
C666       C1419   1.417   1_455  A
C666        C693   1.490       .  S
C667       C1418   1.418       .  A
C667        C668   1.417       .  A
C667        C729   1.491       .  S
C668        C683   1.490       .  S
C669        C670   1.402       .  A
C669        C674   1.396       .  A
C669        H675   1.083       .  S
C670        C671   1.402       .  A
C671        C672   1.396       .  A
C671       H1428   1.083       .  S
C672        C673   1.409       .  A
C672        H677   1.082       .  S
C673        C674   1.409       .  A
C674        H678   1.082       .  S
H676       C1423   1.083       .  S
C679        C680   1.409       .  A
C679        C684   1.396       .  A
C679        H685   1.082       .  S
C680        C681   1.409       .  A
C681        C682   1.396       .  A
C681        H686   1.082       .  S
C682        C683   1.402       .  A
C683        C684   1.402       .  A
C684        H688   1.083       .  S
C689        C690   1.409       .  A
C689        C694   1.396       .  A
C689        H695   1.082       .  S
C690        C691   1.409       .  A
C691        C692   1.396       .  A
C691        H696   1.082       .  S
C692        C693   1.402       .  A
C692       H1449   1.083       .  S
C693        C694   1.402       .  A
H697       C1444   1.083       .  S
C699        C700   1.206       .  T
C701        C702   1.206       .  T
C703        C704   1.206       .  T
C705        C706   1.205       .  T
C707        C708   1.205       .  T
C709        C710   1.205       .  T
C711        C712   1.409       .  A
C711        C716   1.396       .  A
C711        H717   1.082       .  S
C712        C713   1.409       .  A
C713        C714   1.397       .  A
C713        H718   1.082       .  S
C714        C715   1.402       .  A
C714        H719   1.083       .  S
C715        C716   1.402       .  A
C721        C722   1.206       .  T
C723        C724   1.206       .  T
C725        C726   1.409       .  A
C725        C730   1.396       .  A
C725        H731   1.082       .  S
C726        C727   1.409       .  A
C727        C728   1.397       .  A
C727        H732   1.082       .  S
C728        C729   1.403       .  A
C728        H733   1.083       .  S
C729        C730   1.402       .  A
C730       H1486   1.083       .  S
H734       C1482   1.083       .  S
C735        C736   1.206       .  T
C737        C738   1.206       .  T
C739        C740   1.409       .  A
C739        C744   1.397       .  A
C739        H745   1.082       .  S
C740        C741   1.409       .  A
C741        C742   1.396       .  A
C741        H746   1.082       .  S
C742        C743   1.402       .  A
C743        C744   1.402       .  A
C744       H1500   1.083       .  S
H748       C1496   1.083       .  S
C749        C750   1.205       .  T
C751        C752   1.205       .  T
C753        C754   1.414       .  A
C753        C758   1.413       .  A
C753        C928   1.498       .  S
C754        C755   1.402       .  A
C754        H759   1.082       .  S
C755        C756   1.397       .  A
C755        C939   1.442       .  S
C756        C757   1.397       .  A
C756        H760   1.085       .  S
C757        C758   1.400       .  A
C757        C937   1.440       .  S
C758        H761   1.082       .  S
C762        C763   1.412       .  A
C762        C767   1.411       .  A
C762        C914   1.493       .  S
C763        C764   1.401       .  A
C763        H768   1.083       .  S
C764        C765   1.396       .  A
C764        C926   1.439       .  S
C765        C766   1.396       .  A
C765        H769   1.085       .  S
C766        C767   1.399       .  A
C766        C923   1.438       .  S
C767        H770   1.083       .  S
O771       Cr789   2.012       .  S
O771        C779   1.265       .  A
O772       Cr789   1.974       .  S
O772        C773   1.258       .  A
C773        C925   1.434       .  S
C773        O774   1.264       .  A
O774       Cr978   2.010       .  S
O775       Cr978   1.975       .  S
O775        C776   1.259       .  A
C776        C938   1.435       .  S
C776        O777   1.265       .  A
O777       Cr979   2.012   1_554  S
O778       Cr979   1.970   1_554  S
O778        C779   1.257       .  A
C779        C910   1.434       .  S
O780       Cr977   1.973       .  S
O780        C788   1.258       .  A
O781       Cr977   2.008       .  S
O781        C782   1.264       .  A
C782        C924   1.433       .  S
C782        O783   1.258       .  A
O783       Cr790   1.974       .  S
O784       Cr790   2.011       .  S
O784        C785   1.264       .  A
C785        C940   1.437       .  S
C785        O786   1.259       .  A
O786       Cr791   1.977       .  S
O787       Cr791   2.012       .  S
O787        C788   1.265       .  A
C788        C912   1.434       .  S
Cr789       O968   1.973   1_554  S
Cr789       O969   2.012   1_554  S
Cr789       O980   1.773       .  S
Cr790       O962   2.011       .  S
Cr790       O963   1.973       .  S
Cr790       O792   1.774       .  S
Cr791       O965   2.010       .  S
Cr791       O966   1.977       .  S
Cr791       O792   1.773       .  S
O792       Cr977   1.774       .  S
C793        C794   1.413       .  A
C793        C798   1.414       .  A
C793        C900   1.498       .  S
C794        C795   1.401       .  A
C794        H799   1.082       .  S
C795        C796   1.396       .  A
C795        C911   1.440       .  S
C796        C797   1.396       .  A
C796        H800   1.085       .  S
C797        C798   1.399       .  A
C797        C909   1.440       .  S
C798        H801   1.082       .  S
O802      Cr1008   2.009       .  S
O802        C810   1.264       .  A
O803      Cr1008   1.974       .  S
O803        C804   1.258       .  A
C804        C891   1.434       .  S
C804        O805   1.264       .  A
O805      Cr1009   2.009       .  S
O806      Cr1009   1.975       .  S
O806        C807   1.258       .  A
C807        C896   1.435       .  S
C807        O808   1.264       .  A
O808      Cr1010   2.009       .  S
O809      Cr1010   1.975       .  S
O809        C810   1.258       .  A
C810        C890   1.434       .  S
O811       Cr820   1.976       .  S
O811        C819   1.258       .  A
O812       Cr820   2.010       .  S
O812        C813   1.264       .  A
C813        C893   1.435       .  S
C813        O814   1.258       .  A
O814       Cr821   1.975       .  S
O815       Cr821   2.010       .  S
O815        C816   1.264       .  A
C816        C897   1.434       .  S
C816        O817   1.258       .  A
O817       Cr822   1.974   1_554  S
O818       Cr822   2.008   1_554  S
O818        C819   1.264       .  A
C819        C888   1.434       .  S
Cr820       O990   2.010   1_554  S
Cr820       O991   1.975   1_554  S
Cr820       O823   1.773   1_554  S
Cr821       O993   2.009   1_554  S
Cr821       O994   1.975   1_554  S
Cr821       O823   1.773   1_554  S
Cr822       O996   2.008       .  S
Cr822       O997   1.975       .  S
Cr822       O823   1.774       .  S
C824        C825   1.412       .  A
C824        C829   1.412       .  A
C824        C878   1.494       .  S
C825        C826   1.400       .  A
C825        H830   1.083       .  S
C826        C827   1.397       .  A
C826        C898   1.439       .  S
C827        C828   1.397       .  A
C827        H831   1.085       .  S
C828        C829   1.401       .  A
C828        C895   1.440       .  S
C829        H832   1.083       .  S
C833        C834   1.412       .  A
C833        C838   1.411       .  A
C833        C868   1.493       .  S
C834        C835   1.401       .  A
C834        H839   1.083       .  S
C835        C836   1.397       .  A
C835        C894   1.440       .  S
C836        C837   1.397       .  A
C836        H840   1.085       .  S
C837        C838   1.400       .  A
C837        C892   1.439       .  S
C838        H841   1.083       .  S
C842        C843   1.416       .  A
C842        C847   1.416       .  A
C842        C861   1.505       .  S
C843        C844   1.401       .  A
C843        H848   1.080       .  S
C844        C845   1.395       .  A
C844        C889   1.439       .  S
C845        C846   1.394       .  A
C845        H849   1.085       .  S
C846        C847   1.399       .  A
C846        C887   1.439       .  S
C847        H850   1.080       .  S
C851       C1232   1.414   1_545  A
C851        C931   1.489       .  S
C852        C853   1.416       .  A
C852        C858   1.484       .  S
C853       C1230   1.416   1_545  A
C853        C903   1.486       .  S
C854       C1229   1.418       .  A
C854        C881   1.491       .  S
C855        C856   1.417       .  A
C855        C917   1.490       .  S
C856       C1227   1.417       .  A
C856        C871   1.490       .  S
C857        C858   1.397       .  A
C857        C862   1.394       .  A
C857        H863   1.082       .  S
C858        C859   1.399       .  A
C859        C860   1.399       .  A
C860        C861   1.414       .  A
C860        H865   1.079       .  S
C861        C862   1.413       .  A
C862        H866   1.079       .  S
C867        C868   1.409       .  A
C867        C872   1.396       .  A
C867        H873   1.082       .  S
C868        C869   1.409       .  A
C869        C870   1.396       .  A
C869        H874   1.082       .  S
C870        C871   1.402       .  A
C870       H1251   1.083       .  S
C871        C872   1.402       .  A
C872        H876   1.083       .  S
H875       C1246   1.083       .  S
C877        C878   1.409       .  A
C877        C882   1.396       .  A
C877        H883   1.082       .  S
C878        C879   1.409       .  A
C879        C880   1.397       .  A
C879        H884   1.082       .  S
C880        C881   1.402       .  A
C881        C882   1.402       .  A
C882       H1262   1.083       .  S
H886       C1258   1.083       .  S
C887        C888   1.205       .  T
C889        C890   1.205       .  T
C891        C892   1.205       .  T
C893        C894   1.206       .  T
C895        C896   1.206       .  T
C897        C898   1.205       .  T
C899        C900   1.412       .  A
C899        C904   1.399       .  A
C899        H905   1.081       .  S
C900        C901   1.410       .  A
C901        C902   1.394       .  A
C901        H906   1.081       .  S
C902        C903   1.399       .  A
C902        H907   1.081       .  S
C903        C904   1.401       .  A
C904       H1284   1.083       .  S
H908       C1280   1.083       .  S
C909        C910   1.205       .  T
C911        C912   1.206       .  T
C913        C914   1.409       .  A
C913        C918   1.396       .  A
C913        H919   1.082       .  S
C914        C915   1.409       .  A
C915        C916   1.396       .  A
C915        H920   1.082       .  S
C916        C917   1.402       .  A
C916        H921   1.083       .  S
C917        C918   1.402       .  A
C923        C924   1.205       .  T
C925        C926   1.205       .  T
C927        C928   1.411       .  A
C927        C932   1.397       .  A
C927        H933   1.081       .  S
C928        C929   1.410       .  A
C929        C930   1.397       .  A
C929        H934   1.081       .  S
C930        C931   1.401       .  A
C930       H1311   1.083       .  S
C931        C932   1.401       .  A
H935       C1306   1.083       .  S
C937        C938   1.206       .  T
C939        C940   1.207       .  T
C941        C942   1.411       .  A
C941        C946   1.411       .  A
C941       C1116   1.492       .  S
C942        C943   1.400       .  A
C942        H947   1.083       .  S
C943        C944   1.396       .  A
C943       C1127   1.439       .  S
C944        C945   1.396       .  A
C944        H948   1.085       .  S
C945        C946   1.400       .  A
C945       C1125   1.439       .  S
C946        H949   1.083       .  S
C950        C951   1.412       .  A
C950        C955   1.412       .  A
C950       C1102   1.494       .  S
C951        C952   1.401       .  A
C951        H956   1.083       .  S
C952        C953   1.397       .  A
C952       C1114   1.440       .  S
C953        C954   1.397       .  A
C953        H957   1.085       .  S
C954        C955   1.400       .  A
C954       C1111   1.440       .  S
C955        H958   1.083       .  S
O959       Cr977   2.008       .  S
O959        C967   1.263       .  A
O960       Cr977   1.974       .  S
O960        C961   1.258       .  A
C961       C1113   1.435       .  S
C961        O962   1.265       .  A
O963        C964   1.258       .  A
C964       C1126   1.434       .  S
C964        O965   1.264       .  A
O966        C967   1.258       .  A
C967       C1098   1.435       .  S
O968        C976   1.257       .  A
O969        C970   1.265       .  A
C970       C1112   1.435       .  S
C970        O971   1.259       .  A
O971       Cr978   1.974   1_556  S
O972       Cr978   2.010   1_556  S
O972        C973   1.264       .  A
C973       C1128   1.434       .  S
C973        O974   1.257       .  A
O974       Cr979   1.973       .  S
O975       Cr979   2.012       .  S
O975        C976   1.265       .  A
C976       C1100   1.435       .  S
Cr978       O980   1.774       .  S
Cr979       O980   1.774   1_556  S
C981        C982   1.412       .  A
C981        C986   1.412       .  A
C981       C1088   1.494       .  S
C982        C983   1.401       .  A
C982        H987   1.083       .  S
C983        C984   1.397       .  A
C983       C1099   1.441       .  S
C984        C985   1.397       .  A
C984        H988   1.085       .  S
C985        C986   1.400       .  A
C985       C1097   1.440       .  S
C986        H989   1.083       .  S
O990        C998   1.264       .  A
O991        C992   1.258       .  A
C992       C1079   1.434       .  S
C992        O993   1.264       .  A
O994        C995   1.258       .  A
C995       C1084   1.434       .  S
C995        O996   1.264       .  A
O997        C998   1.258       .  A
C998       C1078   1.434       .  S
O999      Cr1008   1.975       .  S
O999       C1007   1.258       .  A
O1000     Cr1008   2.009       .  S
O1000      C1001   1.264       .  A
C1001      C1081   1.435       .  S
C1001      O1002   1.258       .  A
O1002     Cr1009   1.975       .  S
O1003     Cr1009   2.009       .  S
O1003      C1004   1.264       .  A
C1004      C1085   1.434       .  S
C1004      O1005   1.258       .  A
O1005     Cr1010   1.974       .  S
O1006     Cr1010   2.009       .  S
O1006      C1007   1.264       .  A
C1007      C1076   1.434       .  S
Cr1008     O1011   1.774       .  S
Cr1009     O1011   1.774       .  S
Cr1010     O1011   1.773       .  S
C1012      C1013   1.412       .  A
C1012      C1017   1.412       .  A
C1012      C1066   1.493       .  S
C1013      C1014   1.400       .  A
C1013      H1018   1.083       .  S
C1014      C1015   1.396       .  A
C1014      C1086   1.439       .  S
C1015      C1016   1.396       .  A
C1015      H1019   1.085       .  S
C1016      C1017   1.400       .  A
C1016      C1083   1.439       .  S
C1017      H1020   1.083       .  S
C1021      C1022   1.412       .  A
C1021      C1026   1.412       .  A
C1021      C1056   1.494       .  S
C1022      C1023   1.400       .  A
C1022      H1027   1.083       .  S
C1023      C1024   1.397       .  A
C1023      C1082   1.440       .  S
C1024      C1025   1.397       .  A
C1024      H1028   1.085       .  S
C1025      C1026   1.400       .  A
C1025      C1080   1.440       .  S
C1026      H1029   1.083       .  S
C1030      C1031   1.412       .  A
C1030      C1035   1.412       .  A
C1030      C1049   1.493       .  S
C1031      C1032   1.400       .  A
C1031      H1036   1.083       .  S
C1032      C1033   1.396       .  A
C1032      C1077   1.440       .  S
C1033      C1034   1.397       .  A
C1033      H1037   1.085       .  S
C1034      C1035   1.400       .  A
C1034      C1075   1.439       .  S
C1035      H1038   1.083       .  S
C1039      C1420   1.417   1_545  A
C1039      C1119   1.490       .  S
C1040      C1041   1.417       .  A
C1040      C1046   1.490       .  S
C1041      C1418   1.418   1_545  A
C1041      C1091   1.491       .  S
C1042      C1417   1.418       .  A
C1042      C1069   1.490       .  S
C1043      C1044   1.417       .  A
C1043      C1105   1.491       .  S
C1044      C1415   1.417       .  A
C1044      C1059   1.490       .  S
C1045      C1046   1.402       .  A
C1045      C1050   1.396       .  A
C1045      H1051   1.083       .  S
C1046      C1047   1.402       .  A
C1047      C1048   1.396       .  A
C1048      C1049   1.409       .  A
C1048      H1053   1.082       .  S
C1049      C1050   1.409       .  A
C1050      H1054   1.082       .  S
C1055      C1056   1.409       .  A
C1055      C1060   1.396       .  A
C1055      H1061   1.082       .  S
C1056      C1057   1.409       .  A
C1057      C1058   1.396       .  A
C1057      H1062   1.082       .  S
C1058      C1059   1.402       .  A
C1058      H1439   1.083       .  S
C1059      C1060   1.402       .  A
C1060      H1064   1.083       .  S
H1063      C1434   1.083       .  S
C1065      C1066   1.409       .  A
C1065      C1070   1.396       .  A
C1065      H1071   1.082       .  S
C1066      C1067   1.409       .  A
C1067      C1068   1.396       .  A
C1067      H1072   1.082       .  S
C1068      C1069   1.402       .  A
C1069      C1070   1.402       .  A
C1070      H1450   1.083       .  S
H1074      C1446   1.083       .  S
C1075      C1076   1.205       .  T
C1077      C1078   1.206       .  T
C1079      C1080   1.206       .  T
C1081      C1082   1.206       .  T
C1083      C1084   1.205       .  T
C1085      C1086   1.205       .  T
C1087      C1088   1.409       .  A
C1087      C1092   1.396       .  A
C1087      H1093   1.082       .  S
C1088      C1089   1.409       .  A
C1089      C1090   1.397       .  A
C1089      H1094   1.082       .  S
C1090      C1091   1.403       .  A
C1090      H1095   1.083       .  S
C1091      C1092   1.402       .  A
C1092      H1472   1.083       .  S
H1096      C1468   1.083       .  S
C1097      C1098   1.206       .  T
C1099      C1100   1.206       .  T
C1101      C1102   1.409       .  A
C1101      C1106   1.396       .  A
C1101      H1107   1.082       .  S
C1102      C1103   1.409       .  A
C1103      C1104   1.397       .  A
C1103      H1108   1.082       .  S
C1104      C1105   1.402       .  A
C1104      H1109   1.083       .  S
C1105      C1106   1.402       .  A
C1111      C1112   1.206       .  T
C1113      C1114   1.206       .  T
C1115      C1116   1.409       .  A
C1115      C1120   1.396       .  A
C1115      H1121   1.082       .  S
C1116      C1117   1.409       .  A
C1117      C1118   1.396       .  A
C1117      H1122   1.082       .  S
C1118      C1119   1.402       .  A
C1118      H1499   1.083       .  S
C1119      C1120   1.402       .  A
H1123      C1494   1.083       .  S
C1125      C1126   1.205       .  T
C1127      C1128   1.205       .  T
C1129      C1130   1.411       .  A
C1129      C1134   1.412       .  A
C1129      C1304   1.493       .  S
C1130      C1131   1.400       .  A
C1130      H1135   1.083       .  S
C1131      C1132   1.397       .  A
C1131      C1315   1.439       .  S
C1132      C1133   1.397       .  A
C1132      H1136   1.085       .  S
C1133      C1134   1.400       .  A
C1133      C1313   1.440       .  S
C1134      H1137   1.083       .  S
C1138      C1139   1.412       .  A
C1138      C1143   1.413       .  A
C1138      C1290   1.497       .  S
C1139      C1140   1.401       .  A
C1139      H1144   1.082       .  S
C1140      C1141   1.397       .  A
C1140      C1302   1.440       .  S
C1141      C1142   1.396       .  A
C1141      H1145   1.085       .  S
C1142      C1143   1.399       .  A
C1142      C1299   1.440       .  S
C1143      H1146   1.082       .  S
O1147     Cr1165   2.008   1_554  S
O1147      C1155   1.264       .  A
O1148     Cr1165   1.973   1_554  S
O1148      C1149   1.258       .  A
C1149      C1301   1.435       .  S
C1149      O1150   1.265       .  A
O1150     Cr1354   2.011   1_554  S
O1151     Cr1354   1.974   1_554  S
O1151      C1152   1.258       .  A
C1152      C1314   1.435       .  S
C1152      O1153   1.264       .  A
O1153     Cr1355   2.011   1_554  S
O1154     Cr1355   1.975   1_554  S
O1154      C1155   1.258       .  A
C1155      C1286   1.434       .  S
O1156     Cr1353   1.975       .  S
O1156      C1164   1.258       .  A
O1157     Cr1353   2.013       .  S
O1157      C1158   1.265       .  A
C1158      C1300   1.435       .  S
C1158      O1159   1.257       .  A
O1159     Cr1166   1.971       .  S
O1160     Cr1166   2.010       .  S
O1160      C1161   1.265       .  A
C1161      C1316   1.434       .  S
C1161      O1162   1.258       .  A
O1162     Cr1167   1.974       .  S
O1163     Cr1167   2.010       .  S
O1163      C1164   1.264       .  A
C1164      C1288   1.435       .  S
Cr1165     O1344   1.974       .  S
Cr1165     O1345   2.009       .  S
Cr1165     O1356   1.774       .  S
Cr1166     O1338   2.010       .  S
Cr1166     O1339   1.973       .  S
Cr1166     O1168   1.774       .  S
Cr1167     O1341   2.011       .  S
Cr1167     O1342   1.974       .  S
Cr1167     O1168   1.774       .  S
O1168     Cr1353   1.773       .  S
C1169      C1170   1.412       .  A
C1169      C1174   1.412       .  A
C1169      C1276   1.494       .  S
C1170      C1171   1.401       .  A
C1170      H1175   1.083       .  S
C1171      C1172   1.397       .  A
C1171      C1287   1.440       .  S
C1172      C1173   1.396       .  A
C1172      H1176   1.085       .  S
C1173      C1174   1.400       .  A
C1173      C1285   1.439       .  S
C1174      H1177   1.083       .  S
O1178     Cr1384   2.010       .  S
O1178      C1186   1.264       .  A
O1179     Cr1384   1.976       .  S
O1179      C1180   1.259       .  A
C1180      C1267   1.434       .  S
C1180      O1181   1.264       .  A
O1181     Cr1385   2.008       .  S
O1182     Cr1385   1.972       .  S
O1182      C1183   1.258       .  A
C1183      C1272   1.435       .  S
C1183      O1184   1.265       .  A
O1184     Cr1386   2.012       .  S
O1185     Cr1386   1.976       .  S
O1185      C1186   1.258       .  A
C1186      C1266   1.435       .  S
O1187     Cr1196   1.973   1_554  S
O1187      C1195   1.258       .  A
O1188     Cr1196   2.010   1_554  S
O1188      C1189   1.264       .  A
C1189      C1269   1.434       .  S
C1189      O1190   1.258       .  A
O1190     Cr1197   1.975       .  S
O1191     Cr1197   2.011       .  S
O1191      C1192   1.265       .  A
C1192      C1273   1.435       .  S
C1192      O1193   1.258       .  A
O1193     Cr1198   1.973   1_554  S
O1194     Cr1198   2.009   1_554  S
O1194      C1195   1.264       .  A
C1195      C1264   1.433       .  S
Cr1196     O1366   2.010       .  S
Cr1196     O1367   1.973       .  S
Cr1196     O1199   1.773   1_556  S
Cr1197     O1369   2.011   1_554  S
Cr1197     O1370   1.975   1_554  S
Cr1197     O1199   1.773       .  S
Cr1198     O1372   2.009       .  S
Cr1198     O1373   1.974       .  S
Cr1198     O1199   1.774   1_556  S
C1200      C1201   1.411       .  A
C1200      C1205   1.411       .  A
C1200      C1254   1.492       .  S
C1201      C1202   1.400       .  A
C1201      H1206   1.083       .  S
C1202      C1203   1.397       .  A
C1202      C1274   1.440       .  S
C1203      C1204   1.397       .  A
C1203      H1207   1.085       .  S
C1204      C1205   1.401       .  A
C1204      C1271   1.440       .  S
C1205      H1208   1.083       .  S
C1209      C1210   1.416       .  A
C1209      C1214   1.417       .  A
C1209      C1244   1.508       .  S
C1210      C1211   1.401       .  A
C1210      H1215   1.080       .  S
C1211      C1212   1.395       .  A
C1211      C1270   1.440       .  S
C1212      C1213   1.394       .  A
C1212      H1216   1.085       .  S
C1213      C1214   1.399       .  A
C1213      C1268   1.440       .  S
C1214      H1217   1.079       .  S
C1218      C1219   1.412       .  A
C1218      C1223   1.411       .  A
C1218      C1237   1.493       .  S
C1219      C1220   1.401       .  A
C1219      H1224   1.083       .  S
C1220      C1221   1.397       .  A
C1220      C1265   1.440       .  S
C1221      C1222   1.397       .  A
C1221      H1225   1.085       .  S
C1222      C1223   1.399       .  A
C1222      C1263   1.439       .  S
C1223      H1226   1.083       .  S
C1227      C1307   1.490       .  S
C1228      C1229   1.417       .  A
C1228      C1234   1.490       .  S
C1229      C1279   1.491       .  S
C1230      C1257   1.489       .  S
C1231      C1232   1.416       .  A
C1231      C1293   1.488       .  S
C1232      C1247   1.484       .  S
C1233      C1234   1.402       .  A
C1233      C1238   1.396       .  A
C1233      H1239   1.083       .  S
C1234      C1235   1.402       .  A
C1235      C1236   1.397       .  A
C1236      C1237   1.409       .  A
C1236      H1241   1.082       .  S
C1237      C1238   1.409       .  A
C1238      H1242   1.082       .  S
C1243      C1244   1.414       .  A
C1243      C1248   1.394       .  A
C1243      H1249   1.078       .  S
C1244      C1245   1.415       .  A
C1245      C1246   1.399       .  A
C1245      H1250   1.079       .  S
C1246      C1247   1.398       .  A
C1247      C1248   1.397       .  A
C1248      H1252   1.082       .  S
C1253      C1254   1.409       .  A
C1253      C1258   1.396       .  A
C1253      H1259   1.082       .  S
C1254      C1255   1.409       .  A
C1255      C1256   1.397       .  A
C1255      H1260   1.082       .  S
C1256      C1257   1.402       .  A
C1257      C1258   1.402       .  A
C1263      C1264   1.205       .  T
C1265      C1266   1.206       .  T
C1267      C1268   1.205       .  T
C1269      C1270   1.205       .  T
C1271      C1272   1.206       .  T
C1273      C1274   1.206       .  T
C1275      C1276   1.409       .  A
C1275      C1280   1.396       .  A
C1275      H1281   1.082       .  S
C1276      C1277   1.409       .  A
C1277      C1278   1.397       .  A
C1277      H1282   1.082       .  S
C1278      C1279   1.403       .  A
C1278      H1283   1.083       .  S
C1279      C1280   1.402       .  A
C1285      C1286   1.205       .  T
C1287      C1288   1.206       .  T
C1289      C1290   1.411       .  A
C1289      C1294   1.399       .  A
C1289      H1295   1.081       .  S
C1290      C1291   1.409       .  A
C1291      C1292   1.394       .  A
C1291      H1296   1.081       .  S
C1292      C1293   1.399       .  A
C1292      H1297   1.080       .  S
C1293      C1294   1.402       .  A
C1299      C1300   1.206       .  T
C1301      C1302   1.206       .  T
C1303      C1304   1.409       .  A
C1303      C1308   1.396       .  A
C1303      H1309   1.082       .  S
C1304      C1305   1.409       .  A
C1305      C1306   1.396       .  A
C1305      H1310   1.082       .  S
C1306      C1307   1.402       .  A
C1307      C1308   1.402       .  A
C1313      C1314   1.206       .  T
C1315      C1316   1.206       .  T
C1317      C1318   1.412       .  A
C1317      C1322   1.412       .  A
C1317      C1492   1.493       .  S
C1318      C1319   1.400       .  A
C1318      H1323   1.083       .  S
C1319      C1320   1.396       .  A
C1319      C1503   1.439       .  S
C1320      C1321   1.397       .  A
C1320      H1324   1.085       .  S
C1321      C1322   1.401       .  A
C1321      C1501   1.439       .  S
C1322      H1325   1.083       .  S
C1326      C1327   1.412       .  A
C1326      C1331   1.412       .  A
C1326      C1478   1.493       .  S
C1327      C1328   1.400       .  A
C1327      H1332   1.083       .  S
C1328      C1329   1.397       .  A
C1328      C1490   1.440       .  S
C1329      C1330   1.397       .  A
C1329      H1333   1.085       .  S
C1330      C1331   1.400       .  A
C1330      C1487   1.439       .  S
C1331      H1334   1.083       .  S
O1335     Cr1353   2.013       .  S
O1335      C1343   1.265       .  A
O1336     Cr1353   1.973       .  S
O1336      C1337   1.257       .  A
C1337      C1489   1.435       .  S
C1337      O1338   1.264       .  A
O1339      C1340   1.258       .  A
C1340      C1502   1.434       .  S
C1340      O1341   1.264       .  A
O1342      C1343   1.259       .  A
C1343      C1474   1.435       .  S
O1344      C1352   1.258       .  A
O1345      C1346   1.264       .  A
C1346      C1488   1.434       .  S
C1346      O1347   1.258       .  A
O1347     Cr1354   1.975       .  S
O1348     Cr1354   2.010       .  S
O1348      C1349   1.264       .  A
C1349      C1504   1.434       .  S
C1349      O1350   1.258       .  A
O1350     Cr1355   1.974       .  S
O1351     Cr1355   2.011       .  S
O1351      C1352   1.265       .  A
C1352      C1476   1.435       .  S
Cr1354     O1356   1.773       .  S
Cr1355     O1356   1.774       .  S
C1357      C1358   1.412       .  A
C1357      C1362   1.412       .  A
C1357      C1464   1.494       .  S
C1358      C1359   1.400       .  A
C1358      H1363   1.083       .  S
C1359      C1360   1.397       .  A
C1359      C1475   1.440       .  S
C1360      C1361   1.397       .  A
C1360      H1364   1.085       .  S
C1361      C1362   1.401       .  A
C1361      C1473   1.441       .  S
C1362      H1365   1.083       .  S
O1366      C1374   1.264       .  A
O1367      C1368   1.258       .  A
C1368      C1455   1.434       .  S
C1368      O1369   1.265       .  A
O1370      C1371   1.258       .  A
C1371      C1460   1.434       .  S
C1371      O1372   1.264       .  A
O1373      C1374   1.258       .  A
C1374      C1454   1.435       .  S
O1375     Cr1384   1.974       .  S
O1375      C1383   1.259       .  A
O1376     Cr1384   2.011       .  S
O1376      C1377   1.264       .  A
C1377      C1457   1.435       .  S
C1377      O1378   1.258       .  A
O1378     Cr1385   1.974       .  S
O1379     Cr1385   2.008       .  S
O1379      C1380   1.263       .  A
C1380      C1461   1.434       .  S
C1380      O1381   1.258       .  A
O1381     Cr1386   1.975       .  S
O1382     Cr1386   2.011       .  S
O1382      C1383   1.265       .  A
C1383      C1452   1.435       .  S
Cr1384     O1387   1.774       .  S
Cr1385     O1387   1.774       .  S
Cr1386     O1387   1.773       .  S
C1388      C1389   1.412       .  A
C1388      C1393   1.412       .  A
C1388      C1442   1.495       .  S
C1389      C1390   1.400       .  A
C1389      H1394   1.083       .  S
C1390      C1391   1.396       .  A
C1390      C1462   1.439       .  S
C1391      C1392   1.397       .  A
C1391      H1395   1.085       .  S
C1392      C1393   1.400       .  A
C1392      C1459   1.439       .  S
C1393      H1396   1.083       .  S
C1397      C1398   1.412       .  A
C1397      C1402   1.412       .  A
C1397      C1432   1.493       .  S
C1398      C1399   1.401       .  A
C1398      H1403   1.083       .  S
C1399      C1400   1.397       .  A
C1399      C1458   1.440       .  S
C1400      C1401   1.397       .  A
C1400      H1404   1.085       .  S
C1401      C1402   1.400       .  A
C1401      C1456   1.439       .  S
C1402      H1405   1.083       .  S
C1406      C1407   1.412       .  A
C1406      C1411   1.412       .  A
C1406      C1425   1.494       .  S
C1407      C1408   1.401       .  A
C1407      H1412   1.083       .  S
C1408      C1409   1.397       .  A
C1408      C1453   1.440       .  S
C1409      C1410   1.397       .  A
C1409      H1413   1.085       .  S
C1410      C1411   1.400       .  A
C1410      C1451   1.440       .  S
C1411      H1414   1.083       .  S
C1415      C1495   1.490       .  S
C1416      C1417   1.417       .  A
C1416      C1422   1.490       .  S
C1417      C1467   1.491       .  S
C1418      C1445   1.490       .  S
C1419      C1420   1.417       .  A
C1419      C1481   1.490       .  S
C1420      C1435   1.490       .  S
C1421      C1422   1.402       .  A
C1421      C1426   1.396       .  A
C1421      H1427   1.083       .  S
C1422      C1423   1.402       .  A
C1423      C1424   1.397       .  A
C1424      C1425   1.409       .  A
C1424      H1429   1.082       .  S
C1425      C1426   1.409       .  A
C1426      H1430   1.082       .  S
C1431      C1432   1.409       .  A
C1431      C1436   1.396       .  A
C1431      H1437   1.082       .  S
C1432      C1433   1.409       .  A
C1433      C1434   1.396       .  A
C1433      H1438   1.082       .  S
C1434      C1435   1.402       .  A
C1435      C1436   1.402       .  A
C1436      H1440   1.083       .  S
C1441      C1442   1.410       .  A
C1441      C1446   1.396       .  A
C1441      H1447   1.081       .  S
C1442      C1443   1.410       .  A
C1443      C1444   1.396       .  A
C1443      H1448   1.081       .  S
C1444      C1445   1.402       .  A
C1445      C1446   1.402       .  A
C1451      C1452   1.206       .  T
C1453      C1454   1.206       .  T
C1455      C1456   1.205       .  T
C1457      C1458   1.206       .  T
C1459      C1460   1.205       .  T
C1461      C1462   1.205       .  T
C1463      C1464   1.409       .  A
C1463      C1468   1.397       .  A
C1463      H1469   1.082       .  S
C1464      C1465   1.409       .  A
C1465      C1466   1.397       .  A
C1465      H1470   1.082       .  S
C1466      C1467   1.402       .  A
C1466      H1471   1.083       .  S
C1467      C1468   1.402       .  A
C1473      C1474   1.206       .  T
C1475      C1476   1.206       .  T
C1477      C1478   1.409       .  A
C1477      C1482   1.396       .  A
C1477      H1483   1.082       .  S
C1478      C1479   1.409       .  A
C1479      C1480   1.396       .  A
C1479      H1484   1.082       .  S
C1480      C1481   1.402       .  A
C1480      H1485   1.083       .  S
C1481      C1482   1.402       .  A
C1487      C1488   1.205       .  T
C1489      C1490   1.206       .  T
C1491      C1492   1.409       .  A
C1491      C1496   1.396       .  A
C1491      H1497   1.082       .  S
C1492      C1493   1.409       .  A
C1493      C1494   1.396       .  A
C1493      H1498   1.082       .  S
C1494      C1495   1.402       .  A
C1495      C1496   1.402       .  A
C1501      C1502   1.205       .  T
C1503      C1504   1.205       .  T
