geometry optimzed in LAMMPS
_audit_creation_date              2020-11-30 
_audit_creation_method            'lammps2cif' 
_symmetry_space_group_name_H-M    'P1' 
_symmetry_Int_Tables_number       1 
_symmetry_cell_setting            triclinic 
loop_ 
_symmetry_equiv_pos_as_xyz 
  x,y,z 
_cell_length_a                    52.13004239 
_cell_length_b                    52.07606837218079 
_cell_length_c                    26.64470198153717 
_cell_angle_alpha                 91.1854994406833 
_cell_angle_beta                  90.53944231661691 
_cell_angle_gamma                 119.70572497315116 
loop_ 
_atom_site_label 
_atom_site_type_symbol 
_atom_site_fract_x 
_atom_site_fract_y 
_atom_site_fract_z 
_atom_site_charge 
O1          O  0.30824138  0.25083810  0.03809474    -0.77900
C2          C  0.24688903  0.24812560  0.14785134     0.83100
O3          O  0.20978754  0.17512258  0.97830376    -0.79000
O4          O  0.18390737  0.24834353  0.03617308    -0.80500
O5          O  0.27961569  0.32053232  0.97801440    -0.80300
O6          O  0.31893807  0.28465702  0.98031429    -0.78900
Zn7        Zn  0.26445573  0.23144988  0.04902046     1.55700
O8          O  0.24771444  0.31152897  0.03930634    -0.80300
Cd9        Cd  0.27740120  0.27991086  0.96521221     1.59700
Cd10       Cd  0.21425144  0.21647783  0.96307635     1.59600
O11         O  0.26699552  0.26865296  0.88971687    -0.80300
O12         O  0.24632776  0.24839667  0.00718526    -1.90800
Cd13       Cd  0.22873028  0.26671716  0.05150703     1.59900
O14         O  0.22530052  0.22485358  0.88788399    -0.80300
O15         O  0.23471834  0.26119652  0.12657027    -0.78900
C16         C  0.22535739  0.16836842  0.00658436     0.83600
C17         C  0.32689238  0.27111810  0.01067257     0.83300
O18         O  0.25871381  0.23592578  0.12250107    -0.77900
C19         C  0.26653255  0.32912449  0.00860126     0.84100
O20         O  0.24655575  0.18801360  0.03368721    -0.78000
C21         C  0.24626868  0.24648095  0.86579965     0.84200
C22         C  0.16598892  0.22953531  0.00362389     0.84500
O23         O  0.17397350  0.21575872  0.97291139    -0.80400
O24         O  0.31562135  0.25437613  0.53657503    -0.77900
C25         C  0.25226778  0.25054073  0.64849928     0.83100
O26         O  0.21888414  0.17885798  0.47785718    -0.79000
O27         O  0.19568725  0.25596845  0.52937279    -0.80500
O28         O  0.28918947  0.32521758  0.47696164    -0.80300
O29         O  0.32603797  0.28564972  0.47408893    -0.78900
Zn30       Zn  0.27253194  0.23583555  0.55001385     1.55700
O31         O  0.25917092  0.31660901  0.54110647    -0.80300
Cd32       Cd  0.28538833  0.28368323  0.46298718     1.59700
Cd33       Cd  0.22285218  0.21990515  0.46336547     1.59600
O34         O  0.27285685  0.27281166  0.38809335    -0.80300
O35         O  0.25509428  0.25245799  0.50650782    -1.90800
Cd36       Cd  0.23861944  0.27153365  0.55060868     1.59900
O37         O  0.23275040  0.22792325  0.38807969    -0.80300
O38         O  0.24007351  0.26315273  0.62583541    -0.78900
C39         C  0.23457335  0.17262754  0.50674142     0.83600
C40         C  0.33377126  0.27253632  0.50578960     0.83300
O41         O  0.26612825  0.24010601  0.62409965    -0.77900
C42         C  0.27734679  0.33413252  0.50963103     0.84100
O43         O  0.25507219  0.19247035  0.53467002    -0.78000
C44         C  0.25226306  0.25014217  0.36500514     0.84200
C45         C  0.17693897  0.23648820  0.49876021     0.84500
O46         O  0.18285594  0.21940426  0.47240917    -0.80400
O47         O  0.05622707  0.24877059  0.97129082    -0.77900
C48         C  0.99735098  0.25240528  0.85770436     0.83100
O49         O  0.03561707  0.32331021  0.03446824    -0.79000
O50         O  0.43709649  0.25704431  0.96835931    -0.80500
O51         O  0.45654562  0.17857888  0.02109762    -0.80300
O52         O  0.03277153  0.21445147  0.02801102    -0.78900
Zn53       Zn  0.03134886  0.26763265  0.95758774     1.55700
O54         O  0.43374881  0.19189950  0.96481474    -0.80300
Cd55       Cd  0.99500242  0.21825911  0.03877109     1.59700
Cd56       Cd  0.99745077  0.28278242  0.04522186     1.59600
O57         O  0.49419661  0.22696058  0.11441448    -0.80300
O58         O  0.99663849  0.25139152  0.99876443    -1.90800
Cd59       Cd  0.46132093  0.23629174  0.95322530     1.59900
O60         O  0.49705901  0.27110255  0.11910017    -0.80300
O61         O  0.47234856  0.24181824  0.87835441    -0.78900
C62         C  0.05650791  0.33013699  0.00365823     0.83600
C63         C  0.05483456  0.22884039  0.99986133     0.83300
O64         O  0.02121023  0.26252796  0.88362260    -0.77900
C65         C  0.43452528  0.17239291  0.99190645     0.84100
O66         O  0.05656824  0.31099990  0.97315821    -0.78000
C67         C  0.49510590  0.24839619  0.13996669     0.84200
C68         C  0.43887330  0.27533697  0.00257097     0.84500
O69         O  0.46021837  0.28691386  0.03464449    -0.80400
O70         O  0.47837201  0.23759500  0.61537139    -0.77900
C71         C  0.44164081  0.26780618  0.50031614     0.83100
O72         O  0.46697542  0.17527354  0.46875975    -0.79000
O73         O  0.99751168  0.26707935  0.38168021    -0.80500
O74         O  0.06122435  0.31237089  0.53100833    -0.80300
O75         O  0.02761186  0.26252729  0.61886457    -0.78900
Zn76       Zn  0.46709910  0.23054971  0.54155638     1.55700
O77         O  0.03846366  0.32059741  0.46747470    -0.80300
Cd78       Cd  0.03697390  0.26784156  0.54358825     1.59700
Cd79       Cd  0.50273821  0.21688207  0.45559952     1.59600
O80         O  0.06447082  0.25174994  0.52653231    -0.80300
O81         O  0.50118335  0.24825834  0.49912687    -1.90800
Cd82       Cd  0.50047022  0.27925785  0.45642146     1.59900
O83         O  0.04250032  0.21676252  0.46636457    -0.80300
O84         O  0.46312675  0.28244351  0.47132235    -0.78900
C85         C  0.44547875  0.16774485  0.49838701     0.83600
C86         C  0.50269709  0.25040000  0.64033948     0.83300
O87         O  0.44081615  0.24785643  0.52825586    -0.77900
C88         C  0.05995672  0.32959801  0.49910822     0.84100
O89         O  0.44369203  0.18662901  0.52722784    -0.78000
C90         C  0.06453644  0.23284954  0.49556826     0.84200
C91         C  0.99792777  0.24580167  0.35784465     0.84500
O92         O  0.99989514  0.22549397  0.38058104    -0.80400
O93         O  0.30440071  0.06041028  0.97036260    -0.77900
C94         C  0.24871624  0.99818113  0.85692348     0.83100
O95         O  0.21130487  0.03562257  0.03326220    -0.79000
O96         O  0.18532619  0.43816004  0.97164838    -0.80500
O97         O  0.28102184  0.46194635  0.03595254    -0.80300
O98         O  0.31962195  0.03978976  0.02688257    -0.78900
Zn99       Zn  0.26132805  0.03343704  0.95574431     1.55700
O100        O  0.24912977  0.43865340  0.97213352    -0.80300
Cd101      Cd  0.27989561  0.00135463  0.04013956     1.59700
Cd102      Cd  0.21476201  0.99767226  0.04095219     1.59600
O103        O  0.27047002  0.00202596  0.11552188    -0.80300
O104        O  0.24673572  0.99934120  0.99751898    -1.90800
Cd105      Cd  0.22971490  0.46410804  0.95907859     1.59900
O106        O  0.22548675  0.99682417  0.11550145    -0.80300
O107        O  0.23371069  0.47434109  0.88441079    -0.78900
C108        C  0.22346815  0.05669711  0.00267884     0.83600
C109        C  0.32474750  0.06099978  0.99802947     0.83300
O110        O  0.25722931  0.02211344  0.88236197    -0.77900
C111        C  0.26792738  0.44018090  0.00467052     0.84100
O112        O  0.24141398  0.05747691  0.96986300    -0.78000
C113        C  0.24701230  0.50012502  0.14553686     0.84200
C114        C  0.16675822  0.43998374  0.00006180     0.84500
O115        O  0.17433421  0.46198065  0.03045358    -0.80400
O116        O  0.25339837  0.44099581  0.53118099    -0.77900
C117        C  0.24771146  0.49872851  0.64461552     0.83100
O118        O  0.17682516  0.46131062  0.47213382    -0.79000
O119        O  0.25699780  0.06309483  0.53253613    -0.80500
O120        O  0.32727153  0.03689132  0.46852567    -0.80300
O121        O  0.28793526  0.46472942  0.47449073    -0.78900
Zn122      Zn  0.23308968  0.46464289  0.54440854     1.55700
O123        O  0.31848282  0.05998845  0.53150871    -0.80300
Cd124      Cd  0.28319529  0.50193704  0.46233361     1.59700
Cd125      Cd  0.21761301  0.49921165  0.46081923     1.59600
O126        O  0.27378668  0.99944301  0.38119812    -0.80300
O127        O  0.24985274  0.49952099  0.50385853    -1.90800
Cd128      Cd  0.27418494  0.03597381  0.54453829     1.59900
O129        O  0.23206451  0.00137640  0.38199359    -0.80300
O130        O  0.26901579  0.02577130  0.61929112    -0.78900
C131        C  0.17020018  0.43975735  0.50106670     0.83600
C132        C  0.27395890  0.44289824  0.50325920     0.83300
O133        O  0.23676855  0.47480912  0.61838198    -0.77900
C134        C  0.33611744  0.05815641  0.50087628     0.84100
O135        O  0.18965096  0.43879910  0.52901037    -0.78000
C136        C  0.25269584  0.00027897  0.35815313     0.84200
C137        C  0.23653849  0.06243006  0.50522216     0.84500
O138        O  0.22117276  0.04077514  0.47453031    -0.80400
C139        C  0.25598624  0.00039318  0.69583718     0.00400
C140        C  0.25083500  0.02109803  0.72160039    -0.11500
C141        C  0.24828652  0.02071668  0.77379726     0.02700
C142        C  0.25109618  0.99931947  0.80148725     0.00300
C143        C  0.23558454  0.47262734  0.77991916    -0.11400
C144        C  0.23576494  0.47154949  0.72740690     0.02500
H145        H  0.24802286  0.03722169  0.70069280     0.15500
H146        H  0.22825756  0.45226608  0.79976778     0.15500
C147        C  0.22572040  0.44301325  0.70299589     0.37200
C148        C  0.24151524  0.04179623  0.79746037     0.37100
N149        N  0.21755665  0.42004329  0.68379149    -0.43200
N150        N  0.23606015  0.05867076  0.81638498    -0.43200
C151        C  0.24853881  0.99929446  0.19511251     0.00400
C152        C  0.27361430  0.00189916  0.22022335    -0.11500
C153        C  0.27560025  0.00222338  0.27271452     0.02700
C154        C  0.25199142  0.99990746  0.30202599     0.00300
C155        C  0.22256459  0.48610983  0.28151559    -0.11400
C156        C  0.22098788  0.48566078  0.22896695     0.02500
H157        H  0.29203824  0.00380688  0.19880455     0.15500
H158        H  0.20227595  0.47473527  0.30219715     0.15500
C159        C  0.19222097  0.46919943  0.20466819     0.37200
C160        C  0.30245662  0.00531459  0.29477325     0.37100
N161        N  0.16916981  0.45592803  0.18524836    -0.43200
N162        N  0.32400452  0.00777565  0.31224487    -0.43200
C163        C  0.13944078  0.41456744  0.50177392     0.00400
C164        C  0.12340122  0.40313660  0.45634726    -0.11500
C165        C  0.09656037  0.37618194  0.45450929     0.02700
C166        C  0.08500525  0.36053053  0.49906450     0.00300
C167        C  0.10001424  0.37325939  0.54485083    -0.11400
C168        C  0.12692882  0.39981362  0.54658837     0.02500
H169        H  0.13280720  0.41423316  0.42170576     0.15500
H170        H  0.09120297  0.36180710  0.57947510     0.15500
C171        C  0.14140208  0.41112577  0.59498136     0.37200
C172        C  0.08297300  0.36389976  0.40595286     0.37100
N173        N  0.15290286  0.42003621  0.63384213    -0.43200
N174        N  0.07228050  0.35402371  0.36692250    -0.43200
C175        C  0.42120119  0.13657571  0.49933283     0.00400
C176        C  0.40701130  0.12604522  0.54494952    -0.11500
C177        C  0.38057666  0.09921509  0.54688621     0.02700
C178        C  0.36731705  0.08245651  0.50220375     0.00300
C179        C  0.38289779  0.09149629  0.45728341    -0.11400
C180        C  0.40973517  0.11829643  0.45551059     0.02500
H181        H  0.41614312  0.13935353  0.57917882     0.15500
H182        H  0.37322471  0.07861542  0.42285347     0.15500
C183        C  0.42370158  0.12740565  0.40760284     0.37200
C184        C  0.36733907  0.08969910  0.59528700     0.37100
N185        N  0.43487999  0.13459287  0.36916237    -0.43200
N186        N  0.35672164  0.08202294  0.63401605    -0.43200
C187        C  0.99886572  0.25272841  0.80211709     0.00400
C188        C  0.02192844  0.25056136  0.77920403    -0.11500
C189        C  0.02385489  0.24979809  0.72684875     0.02700
C190        C  0.50204774  0.25132614  0.69590086     0.00300
C191        C  0.47906226  0.25354429  0.71883880    -0.11400
C192        C  0.47746440  0.25483303  0.77116196     0.02500
H193        H  0.03829896  0.24894186  0.80227252     0.15500
H194        H  0.46258313  0.25496278  0.69573318     0.15500
C195        C  0.45456658  0.25947264  0.79199530     0.37200
C196        C  0.04767285  0.24674078  0.70581496     0.37100
N197        N  0.43628530  0.26342363  0.80834152    -0.43200
N198        N  0.06680683  0.24432591  0.68909465    -0.43200
C199        C  0.99613108  0.24496502  0.30203746     0.00400
C200        C  0.48357164  0.25985784  0.27806134    -0.11500
C201        C  0.48242945  0.26093776  0.22564574     0.02700
C202        C  0.49439439  0.24691014  0.19560039     0.00300
C203        C  0.00755786  0.23265137  0.21952297    -0.11400
C204        C  0.00885557  0.23169505  0.27192685     0.02500
H205        H  0.47431917  0.27078095  0.30050285     0.15500
H206        H  0.01797179  0.22292984  0.19699650     0.15500
C207        C  0.02470202  0.21821978  0.29344024     0.37200
C208        C  0.46795959  0.27577539  0.20395948     0.37100
N209        N  0.03748718  0.20747141  0.31053153    -0.43200
N210        N  0.45624414  0.28759054  0.18678350    -0.43200
C211        C  0.08192302  0.36078253  0.00269284     0.00400
C212        C  0.09634244  0.37084112  0.95701478    -0.11500
C213        C  0.12294226  0.39753620  0.95468523     0.02700
C214        C  0.13593920  0.41489949  0.99891956     0.00300
C215        C  0.12047398  0.40601816  0.04396629    -0.11400
C216        C  0.09375586  0.37915865  0.04629243     0.02500
H217        H  0.08715050  0.35736830  0.92295555     0.15500
H218        H  0.13017327  0.41915947  0.07816517     0.15500
C219        C  0.08036971  0.37003678  0.09460582     0.37200
C220        C  0.13643942  0.40639972  0.90630752     0.37100
N221        N  0.06974082  0.36273660  0.13342032    -0.43200
N222        N  0.14714152  0.41342066  0.86747600    -0.43200
C223        C  0.40836869  0.14205898  0.99079921     0.00400
C224        C  0.40166227  0.12491111  0.03394673    -0.11500
C225        C  0.37508793  0.09795659  0.03699980     0.02700
C226        C  0.35473819  0.08744050  0.99590888     0.00300
C227        C  0.36223619  0.10388028  0.95197639    -0.11400
C228        C  0.38852050  0.13080831  0.94903670     0.02500
H229        H  0.41652703  0.13325550  0.06641817     0.15500
H230        H  0.34714989  0.09592105  0.91975201     0.15500
C231        C  0.39425178  0.14632831  0.90250692     0.37200
C232        C  0.36853360  0.08275823  0.08389356     0.37100
N233        N  0.39867562  0.15872183  0.86522904    -0.43200
N234        N  0.36328050  0.07068279  0.12158610    -0.43200
C235        C  0.28086279  0.41842615  0.50451770     0.00400
C236        C  0.28022337  0.40583758  0.55092823    -0.11500
C237        C  0.28149445  0.37966094  0.55379604     0.02700
C238        C  0.28298301  0.36511261  0.50943677     0.00300
C239        C  0.28583703  0.37885766  0.46327862    -0.11400
C240        C  0.28474057  0.40525042  0.46048082     0.02500
H241        H  0.27787264  0.41608435  0.58511873     0.15500
H242        H  0.28695253  0.36798328  0.42889630     0.15500
C243        C  0.28497216  0.41681336  0.41160217     0.37200
C244        C  0.28097004  0.36810655  0.60284341     0.37100
N245        N  0.28504212  0.42605119  0.37243860    -0.43200
N246        N  0.28065045  0.35891083  0.64214854    -0.43200
C247        C  0.23005056  0.14204278  0.50795729     0.00400
C248        C  0.24069038  0.13429424  0.55031369    -0.11500
C249        C  0.24139914  0.10784676  0.55134254     0.02700
C250        C  0.23156197  0.08824315  0.50882751     0.00300
C251        C  0.21888043  0.09488112  0.46782660    -0.11400
C252        C  0.21795924  0.12141426  0.46706593     0.02500
H253        H  0.24919039  0.14935019  0.58273078     0.15500
H254        H  0.21084848  0.07996029  0.43523434     0.15500
C255        C  0.20589229  0.12740753  0.42275536     0.37200
C256        C  0.25255780  0.10173100  0.59678483     0.37100
N257        N  0.19611628  0.13214080  0.38727163    -0.43200
N258        N  0.26154338  0.09691485  0.63316868    -0.43200
C259        C  0.14797668  0.23499944  0.49323326     0.00400
C260        C  0.12189572  0.20763485  0.48604174    -0.11500
C261        C  0.09410151  0.20597334  0.48552884     0.02700
C262        C  0.09241760  0.23208094  0.49197107     0.00300
C263        C  0.11859330  0.25936436  0.49661714    -0.11400
C264        C  0.14607087  0.26112388  0.49707381     0.02500
H265        H  0.12316045  0.18750298  0.48274861     0.16100
H266        H  0.11760234  0.27966485  0.50006610     0.15500
C267        C  0.17191860  0.29028632  0.50077748     0.37200
C268        C  0.06784438  0.17729256  0.48137357     0.37100
N269        N  0.19252210  0.31365434  0.50385421    -0.43200
N270        N  0.04685269  0.15421771  0.47824128    -0.43200
C271        C  0.36407727  0.27683414  0.50566509     0.00400
C272        C  0.37778600  0.27895991  0.45957442    -0.11500
C273        C  0.40373358  0.27716826  0.45708209     0.02700
C274        C  0.41651430  0.27349086  0.50140368     0.00300
C275        C  0.40370802  0.27303753  0.54768831    -0.11400
C276        C  0.37788786  0.27489296  0.55021859     0.02500
H277        H  0.36725764  0.28016539  0.42510372     0.15500
H278        H  0.41365247  0.27070981  0.58198684     0.15500
C279        C  0.36593268  0.27461800  0.59905569     0.37200
C280        C  0.41530446  0.27655470  0.40829203     0.37100
N281        N  0.35623593  0.27443519  0.63803145    -0.43200
N282        N  0.42461310  0.27586875  0.36932952    -0.43200
C283        C  0.24637617  0.24637794  0.81045021     0.00400
C284        C  0.25437848  0.22795899  0.78410173    -0.11500
C285        C  0.25633955  0.22865764  0.73155230     0.02700
C286        C  0.25018477  0.24824120  0.70433680     0.00300
C287        C  0.24138087  0.26604981  0.73128142    -0.11400
C288        C  0.23945686  0.26523916  0.78367784     0.02500
H289        H  0.25944010  0.21320852  0.80474689     0.15500
H290        H  0.23616265  0.28093667  0.71148769     0.15500
C291        C  0.22972192  0.28350586  0.80930505     0.37200
C292        C  0.26414430  0.20858252  0.70696022     0.37100
N293        N  0.22172428  0.29791988  0.83002158    -0.43200
N294        N  0.27034841  0.19241234  0.68741200    -0.43200
C295        C  0.24784630  0.24778113  0.20343713     0.00400
C296        C  0.25062562  0.27240822  0.23076783    -0.11500
C297        C  0.25254901  0.27376697  0.28324711     0.02700
C298        C  0.25077827  0.24972166  0.30958352     0.00300
C299        C  0.24738206  0.22479529  0.28250329    -0.11400
C300        C  0.24645910  0.22381986  0.22985619     0.02500
H301        H  0.25188109  0.29099649  0.21100063     0.15500
H302        H  0.24603522  0.20625761  0.30258014     0.15500
C303        C  0.24371365  0.19783456  0.20417902     0.37200
C304        C  0.25565976  0.29983365  0.30914609     0.37100
N305        N  0.24172500  0.17707038  0.18374321    -0.43200
N306        N  0.25824066  0.32079666  0.32974679    -0.43200
C307        C  0.27226956  0.36008323  0.00804171     0.00400
C308        C  0.26872189  0.37276203  0.05270675    -0.11500
C309        C  0.26930040  0.39993004  0.05292621     0.02700
C310        C  0.27310101  0.41482382  0.00764040     0.00300
C311        C  0.27808832  0.40302266  0.96341700    -0.11400
C312        C  0.27816450  0.37612592  0.96331211     0.02500
H313        H  0.26445265  0.36090154  0.08740370     0.15500
H314        H  0.28104644  0.41444567  0.92850673     0.15500
C315        C  0.28251462  0.36481722  0.91613430     0.37200
C316        C  0.26347510  0.41082244  0.09927926     0.37100
N317        N  0.28615168  0.35591764  0.87827602    -0.43200
N318        N  0.25873790  0.41963305  0.13624101    -0.43200
C319        C  0.21982966  0.13734486  0.00802986     0.00400
C320        C  0.23231003  0.12978622  0.04828345    -0.11500
C321        C  0.23182285  0.10268544  0.04853995     0.02700
C322        C  0.21892932  0.08244187  0.00773233     0.00300
C323        C  0.20507954  0.08901708  0.96868442    -0.11400
C324        C  0.20484815  0.11591283  0.96895676     0.02500
H325        H  0.24339590  0.14550301  0.07920127     0.15500
H326        H  0.19501553  0.07337508  0.93732024     0.15500
C327        C  0.18994087  0.12110958  0.92783227     0.37200
C328        C  0.24651357  0.09699291  0.08951775     0.37100
N329        N  0.17771468  0.12508080  0.89505094    -0.43200
N330        N  0.25831286  0.09242336  0.12225851    -0.43200
C331        C  0.13527647  0.22446054  0.00139183     0.00400
C332        C  0.12111476  0.22341828  0.04659663    -0.11500
C333        C  0.09385258  0.22274040  0.04686489     0.02700
C334        C  0.08039886  0.22363109  0.00117108     0.00300
C335        C  0.09400626  0.22358409  0.95588462    -0.11400
C336        C  0.12103343  0.22376640  0.95556262     0.02500
H337        H  0.13184787  0.22402381  0.08202921     0.15500
H338        H  0.08396186  0.22445742  0.92058422     0.15500
C339        C  0.13470133  0.22565729  0.90786006     0.37200
C340        C  0.08139865  0.22351327  0.09468849     0.37100
N341        N  0.14558903  0.22726835  0.86952806    -0.43200
N342        N  0.07146061  0.22419817  0.13302094    -0.43200
C343        C  0.35821295  0.27788543  0.01250158     0.00400
C344        C  0.37510868  0.28776431  0.96899095    -0.11500
C345        C  0.40266477  0.28923836  0.96604270     0.02700
C346        C  0.41392711  0.28107883  0.00728921     0.00300
C347        C  0.39849588  0.27398924  0.05227709    -0.11400
C348        C  0.37087342  0.27228494  0.05528860     0.02500
H349        H  0.36617549  0.29292644  0.93625036     0.15500
H350        H  0.40726293  0.26809241  0.08439329     0.15500
C351        C  0.35599423  0.26434597  0.10264121     0.37200
C352        C  0.41903430  0.29925083  0.92042633     0.37100
N353        N  0.34423193  0.25801146  0.14072638    -0.43200
N354        N  0.43225341  0.30769528  0.88402733    -0.43200
O355        O  0.30973502  0.75023134  0.02950078    -0.77900
C356        C  0.24962479  0.74848164  0.14147647     0.83100
O357        O  0.21265373  0.67602216  0.96947210    -0.79000
O358        O  0.18654809  0.74702631  0.03176320    -0.80500
O359        O  0.28230216  0.82230155  0.97498081    -0.80300
O360        O  0.32086432  0.78448607  0.97210385    -0.78900
Zn361      Zn  0.26647283  0.73175127  0.04241744     1.55700
O362        O  0.24878031  0.81005211  0.03413061    -0.80300
Cd363      Cd  0.27973170  0.78125661  0.95931752     1.59700
Cd364      Cd  0.21647553  0.71711656  0.95550773     1.59600
O365        O  0.26913511  0.77051249  0.88369075    -0.80300
O366        O  0.24867105  0.74870588  0.00018648    -1.90800
Cd367      Cd  0.23102545  0.76596575  0.04555859     1.59900
O368        O  0.22774369  0.72650873  0.88035188    -0.80300
O369        O  0.23736442  0.76139446  0.12034763    -0.78900
C370        C  0.22745739  0.66920971  0.99944343     0.83600
C371        C  0.32835612  0.77019358  0.00160591     0.83300
O372        O  0.26137921  0.73614113  0.11639747    -0.77900
C373        C  0.26793431  0.82921264  0.00586726     0.84100
O374        O  0.24802017  0.68857252  0.02775837    -0.78000
C375        C  0.24871835  0.74852002  0.85883265     0.84200
C376        C  0.16780818  0.72799285  0.00052435     0.84500
O377        O  0.17542539  0.71467958  0.96814148    -0.80400
O378        O  0.31195631  0.75112455  0.53105425    -0.77900
C379        C  0.25005121  0.74846973  0.64117102     0.83100
O380        O  0.21307290  0.67645369  0.46833744    -0.79000
O381        O  0.19102573  0.75341201  0.52423180    -0.80500
O382        O  0.28555519  0.82186974  0.47121850    -0.80300
O383        O  0.32324096  0.78523298  0.47348724    -0.78900
Zn384      Zn  0.26813163  0.73212299  0.54207740     1.55700
O385        O  0.25489417  0.81309510  0.53430500    -0.80300
Cd386      Cd  0.28229939  0.78098591  0.45849140     1.59700
Cd387      Cd  0.21849299  0.71838365  0.45467945     1.59600
O388        O  0.27272438  0.77061014  0.38332642    -0.80300
O389        O  0.25087107  0.74948723  0.49978676    -1.90800
Cd390      Cd  0.23429859  0.76835337  0.54423076     1.59900
O391        O  0.23015625  0.72800238  0.38006444    -0.80300
O392        O  0.23824036  0.76171788  0.61942810    -0.78900
C393        C  0.22808097  0.66947497  0.49758331     0.83600
C394        C  0.33080053  0.77147504  0.50387375     0.83300
O395        O  0.26205924  0.73624809  0.61626169    -0.77900
C396        C  0.27351264  0.83065393  0.50350275     0.84100
O397        O  0.24908959  0.68885108  0.52538256    -0.78000
C398        C  0.25165669  0.74941241  0.35840710     0.84200
C399        C  0.17265043  0.73528875  0.49153182     0.84500
O400        O  0.17877380  0.71906415  0.46314206    -0.80400
O401        O  0.05739605  0.74560806  0.97226234    -0.77900
C402        C  0.99713001  0.74630447  0.85936182     0.83100
O403        O  0.03565407  0.82169350  0.02853860    -0.79000
O404        O  0.43675523  0.75009038  0.96892572    -0.80500
O405        O  0.45985643  0.67625745  0.03212093    -0.80300
O406        O  0.03547704  0.71391036  0.03362858    -0.78900
Zn407      Zn  0.03242364  0.76432102  0.95811363     1.55700
O408        O  0.43636974  0.68644720  0.97231117    -0.80300
Cd409      Cd  0.99764523  0.71732626  0.04486813     1.59700
Cd410      Cd  0.99844099  0.78114037  0.04251584     1.59600
O411        O  0.49846979  0.72957545  0.11966354    -0.80300
O412        O  0.99816797  0.74844202  0.00051958    -1.90800
Cd413      Cd  0.46217226  0.73044969  0.95682531     1.59900
O414        O  0.49960477  0.77286585  0.11841572    -0.80300
O415        O  0.47225009  0.73401406  0.88161781    -0.78900
C416        C  0.05698011  0.82793487  0.99903608     0.83600
C417        C  0.05658394  0.72689088  0.00311330     0.83300
O418        O  0.02136176  0.75825419  0.88454333    -0.77900
C419        C  0.43785759  0.66829453  0.00188604     0.84100
O420        O  0.05771677  0.80813617  0.97116723    -0.78000
C421        C  0.49909920  0.75170810  0.14240795     0.84200
C422        C  0.43831078  0.76985495  0.99974253     0.84500
O423        O  0.45991189  0.78351187  0.03093783    -0.80400
O424        O  0.47959466  0.74321274  0.61727430    -0.77900
C425        C  0.44371099  0.77727531  0.50390958     0.83100
O426        O  0.46255669  0.68052554  0.47352790    -0.79000
O427        O  0.99999788  0.77532916  0.38367329    -0.80500
O428        O  0.06221847  0.81836775  0.53364181    -0.80300
O429        O  0.02866956  0.76625327  0.61989230    -0.78900
Zn430      Zn  0.46775255  0.73878072  0.54445938     1.55700
O431        O  0.04013298  0.82787526  0.47069203    -0.80300
Cd432      Cd  0.03764357  0.77363564  0.54430915     1.59700
Cd433      Cd  0.50001759  0.72167567  0.45920583     1.59600
O434        O  0.06478322  0.75763730  0.52268929    -0.80300
O435        O  0.50132013  0.75492042  0.50153325    -1.90800
Cd436      Cd  0.50156705  0.78655502  0.45890157     1.59900
O437        O  0.03940257  0.72067201  0.46697324    -0.80300
O438        O  0.46442983  0.79061344  0.47288610    -0.78900
C439        C  0.44118202  0.67493733  0.50267392     0.83600
C440        C  0.50381332  0.75368804  0.64222702     0.83300
O441        O  0.44348416  0.75817509  0.53323038    -0.77900
C442        C  0.06155221  0.83616844  0.50226521     0.84100
O443        O  0.44137525  0.69545172  0.52982885    -0.78000
C444        C  0.06296371  0.73746367  0.49258160     0.84200
C445        C  0.99875536  0.75301637  0.36053981     0.84500
O446        O  0.99780811  0.73145990  0.38401437    -0.80400
O447        O  0.30822476  0.55909233  0.97643814    -0.77900
C448        C  0.24558910  0.49909734  0.86293424     0.83100
O449        O  0.21282476  0.53764613  0.03542430    -0.79000
O450        O  0.18502969  0.93774832  0.96231168    -0.80500
O451        O  0.28398102  0.96370903  0.02863040    -0.80300
O452        O  0.32004619  0.53746914  0.03639688    -0.78900
Zn453      Zn  0.26449193  0.53434544  0.96223046     1.55700
O454        O  0.24741798  0.93705759  0.97302750    -0.80300
Cd455      Cd  0.27891223  0.50042865  0.04807024     1.59700
Cd456      Cd  0.21531320  0.49951727  0.04634453     1.59600
O457        O  0.26902893  0.50144199  0.12279329    -0.80300
O458        O  0.24728667  0.50006945  0.00394260    -1.90800
Cd459      Cd  0.23000583  0.96325154  0.95306847     1.59900
O460        O  0.22511790  0.49901922  0.12176953    -0.80300
O461        O  0.23844350  0.97338055  0.87810216    -0.78900
C462        C  0.22692843  0.55896208  0.00596171     0.83600
C463        C  0.32724655  0.55851666  0.00612651     0.83300
O464        O  0.25810534  0.52329368  0.88850304    -0.77900
C465        C  0.26817599  0.94009067  0.00242603     0.84100
O466        O  0.24635068  0.55975003  0.97646766    -0.78000
C467        C  0.24806933  0.99936570  0.13898400     0.84200
C468        C  0.16658082  0.93851476  0.99250341     0.84500
O469        O  0.17427178  0.95965425  0.02484962    -0.80400
O470        O  0.25527122  0.94079984  0.52595017    -0.77900
C471        C  0.25673630  0.00093069  0.64043599     0.83100
O472        O  0.18149955  0.96493039  0.47081654    -0.79000
O473        O  0.24702553  0.55983334  0.53607643    -0.80500
O474        O  0.32359014  0.54156686  0.47729014    -0.80300
O475        O  0.28849465  0.96206610  0.46662543    -0.78900
Zn476      Zn  0.23766481  0.96629840  0.54099326     1.55700
O477        O  0.31053815  0.56223128  0.53803529    -0.80300
Cd478      Cd  0.28553671  0.99989539  0.45543925     1.59700
Cd479      Cd  0.22284010  0.00196943  0.45783254     1.59600
O480        O  0.27212055  0.50140818  0.38703242    -0.80300
O481        O  0.25466230  0.00051124  0.49939700    -1.90800
Cd482      Cd  0.26641152  0.53477253  0.54959682     1.59900
O483        O  0.22809438  0.49897352  0.38620815    -0.80300
O484        O  0.26022371  0.52372156  0.62387699    -0.78900
C485        C  0.17459060  0.94361449  0.50050699     0.83600
C486        C  0.27454284  0.94107842  0.49669216     0.83300
O487        O  0.24430995  0.97668464  0.61501893    -0.77900
C488        C  0.32997175  0.56291650  0.50875432     0.84100
O489        O  0.19405063  0.94226058  0.52777682    -0.78000
C490        C  0.25012973  0.50029411  0.36342045     0.84200
C491        C  0.22736354  0.55860219  0.50596533     0.84500
O492        O  0.21381984  0.53703508  0.47437411    -0.80400
C493        C  0.24587384  0.49787600  0.70039240     0.00400
C494        C  0.25452941  0.52450226  0.72749262    -0.11500
C495        C  0.25404715  0.52551807  0.77995290     0.02700
C496        C  0.24507573  0.49941012  0.80704059     0.00300
C497        C  0.25674876  0.97886115  0.77569326    -0.11400
C498        C  0.25944149  0.97938556  0.72335591     0.02500
H499        H  0.26169030  0.54484743  0.70767174     0.15500
H500        H  0.25961967  0.96276616  0.79654158     0.15500
C501        C  0.26722939  0.95918522  0.69913718     0.37200
C502        C  0.26245601  0.55372786  0.80429498     0.37100
N503        N  0.27375290  0.94322714  0.67971081    -0.43200
N504        N  0.26913159  0.57638512  0.82349694    -0.43200
C505        C  0.24720517  0.50003524  0.20127568     0.00400
C506        C  0.27450684  0.51442646  0.22742987    -0.11500
C507        C  0.27608536  0.51484280  0.27996073     0.02700
C508        C  0.24987914  0.50044718  0.30766942     0.00300
C509        C  0.22687325  0.99718683  0.27693386    -0.11400
C510        C  0.22487346  0.99682145  0.22442280     0.02500
H511        H  0.29479660  0.52580993  0.20674773     0.15500
H512        H  0.20844819  0.99523526  0.29840065     0.15500
C513        C  0.19809516  0.99387802  0.20234495     0.37200
C514        C  0.30486754  0.53120396  0.30421900     0.37100
N515        N  0.17659471  0.99150154  0.18482597    -0.43200
N516        N  0.32793651  0.54436228  0.32360985    -0.43200
C517        C  0.14345381  0.91915616  0.50308915     0.00400
C518        C  0.12522485  0.90985084  0.45962026    -0.11500
C519        C  0.09753728  0.88378034  0.45873282     0.02700
C520        C  0.08742639  0.86674632  0.50238272     0.00300
C521        C  0.10472234  0.87752062  0.54671654    -0.11400
C522        C  0.13239257  0.90313632  0.54744210     0.02500
H523        H  0.13335080  0.92195395  0.42537052     0.15500
H524        H  0.09711704  0.86516351  0.58085747     0.15500
C525        C  0.14912662  0.91194736  0.59430224     0.37200
C526        C  0.08124267  0.87403637  0.41157259     0.37100
N527        N  0.16251829  0.91879129  0.63182833    -0.43200
N528        N  0.06831334  0.86627414  0.37363527    -0.43200
C529        C  0.41486132  0.64445757  0.50575474     0.00400
C530        C  0.39504201  0.63938597  0.54473113    -0.11500
C531        C  0.36832740  0.61286552  0.54775475     0.02700
C532        C  0.36016817  0.58999587  0.51061491     0.00300
C533        C  0.38072246  0.59428762  0.47308084    -0.11400
C534        C  0.40786278  0.62099132  0.47057207     0.02500
H535        H  0.40015184  0.65655647  0.57317349     0.15500
H536        H  0.37531993  0.57703786  0.44469507     0.15500
C537        C  0.42765782  0.62371587  0.43093891     0.37200
C538        C  0.34987257  0.61041308  0.58964228     0.37100
N539        N  0.44360634  0.62578036  0.39934956    -0.43200
N540        N  0.33519819  0.60864674  0.62320859    -0.43200
C541        C  0.99806330  0.74712469  0.80354600     0.00400
C542        C  0.02434879  0.75290465  0.77989126    -0.11500
C543        C  0.02690092  0.75493663  0.72762144     0.02700
C544        C  0.50264401  0.75134369  0.69786669     0.00300
C545        C  0.47630462  0.74532812  0.72149545    -0.11400
C546        C  0.47354531  0.74277809  0.77356371     0.02500
H547        H  0.04303227  0.75554179  0.80228475     0.15500
H548        H  0.45759759  0.74271850  0.69920233     0.15500
C549        C  0.44554682  0.73634412  0.79429887     0.37200
C550        C  0.05407571  0.75928549  0.70620836     0.37100
N551        N  0.42292264  0.73088344  0.81044775    -0.43200
N552        N  0.07583389  0.76259603  0.68924163    -0.43200
C553        C  0.99876173  0.75238237  0.30464032     0.00400
C554        C  0.49123185  0.77024806  0.27910729    -0.11500
C555        C  0.49128909  0.77091351  0.22657552     0.02700
C556        C  0.49920651  0.75261605  0.19835809     0.00300
C557        C  0.00740525  0.73512701  0.22415931    -0.11400
C558        C  0.00767438  0.73484181  0.27664835     0.02500
H559        H  0.48477816  0.78417608  0.29997693     0.15500
H560        H  0.01446122  0.72161523  0.20352396     0.15500
C561        C  0.01835488  0.71713666  0.30041492     0.37200
C562        C  0.48256884  0.79026815  0.20312499     0.37100
N563        N  0.02699033  0.70303251  0.31950210    -0.43200
N564        N  0.47567186  0.80587071  0.18445298    -0.43200
C565        C  0.08211610  0.85866833  0.99687461     0.00400
C566        C  0.09648283  0.86820764  0.95105314    -0.11500
C567        C  0.12291243  0.89505815  0.94798877     0.02700
C568        C  0.13585623  0.91305424  0.99168162     0.00300
C569        C  0.12038357  0.90455300  0.03683501    -0.11400
C570        C  0.09377715  0.87764148  0.03981524     0.02500
H571        H  0.08736382  0.85421674  0.91750429     0.15500
H572        H  0.12993421  0.91811045  0.07068563     0.15500
C573        C  0.08025411  0.86911946  0.08818063     0.37200
C574        C  0.13626620  0.90337431  0.89943200     0.37100
N575        N  0.06944582  0.86227555  0.12696619    -0.43200
N576        N  0.14686984  0.90996323  0.86045214    -0.43200
C577        C  0.41251584  0.63747046  0.00137912     0.00400
C578        C  0.40356764  0.62194365  0.04630968    -0.11500
C579        C  0.37662570  0.59516813  0.04852612     0.02700
C580        C  0.35814537  0.58354745  0.00509556     0.00300
C581        C  0.36830729  0.59796195  0.95960051    -0.11400
C582        C  0.39509841  0.62443580  0.95728766     0.02500
H583        H  0.41676994  0.63152825  0.08037676     0.15500
H584        H  0.35480780  0.58889149  0.92566069     0.15500
C585        C  0.40392847  0.63790385  0.90898684     0.37200
C586        C  0.36762796  0.58130802  0.09646026     0.37100
N587        N  0.41103206  0.64879021  0.87038926    -0.43200
N588        N  0.36037109  0.57014270  0.13482418    -0.43200
C589        C  0.28009869  0.91588557  0.49839066     0.00400
C590        C  0.27720105  0.90240755  0.54467541    -0.11500
C591        C  0.27720122  0.87569816  0.54780698     0.02700
C592        C  0.27978280  0.86165571  0.50376423     0.00300
C593        C  0.28511018  0.87629953  0.45803903    -0.11400
C594        C  0.28531246  0.90325579  0.45499686     0.02500
H595        H  0.27409243  0.91240221  0.57849918     0.15500
H596        H  0.28733728  0.86584512  0.42402060     0.15500
C597        C  0.28866902  0.91616153  0.40635959     0.37200
C598        C  0.27428453  0.86317544  0.59674422     0.37100
N599        N  0.29138308  0.92648487  0.36735533    -0.43200
N600        N  0.27201154  0.85321389  0.63597453    -0.43200
C601        C  0.22184615  0.63839317  0.50057153     0.00400
C602        C  0.22941507  0.63006681  0.54569057    -0.11500
C603        C  0.22924074  0.60329323  0.54934035     0.02700
C604        C  0.22163338  0.58394452  0.50678383     0.00300
C605        C  0.21147488  0.59096996  0.46285166    -0.11400
C606        C  0.21138862  0.61787232  0.45946300     0.02500
H607        H  0.23641302  0.64504133  0.57823992     0.15500
H608        H  0.20509765  0.57620198  0.43012179     0.15500
C609        C  0.20212122  0.62441306  0.41253153     0.37200
C610        C  0.23750653  0.59673539  0.59733586     0.37100
N611        N  0.19451402  0.62943872  0.37486010    -0.43200
N612        N  0.24420600  0.59166273  0.63583423    -0.43200
C613        C  0.14419801  0.73497271  0.48546801     0.00400
C614        C  0.11719828  0.70821207  0.48258644    -0.11500
C615        C  0.09013159  0.70817390  0.48313319     0.02700
C616        C  0.09004833  0.73524746  0.48637731     0.00300
C617        C  0.11707278  0.76182565  0.48622280    -0.11400
C618        C  0.14386603  0.76194797  0.48550317     0.02500
H619        H  0.11724225  0.68741029  0.48218359     0.16100
H620        H  0.11729101  0.78278172  0.48721505     0.15500
C621        C  0.17080031  0.79022608  0.48435762     0.37200
C622        C  0.06294011  0.68027414  0.48372373     0.37100
N623        N  0.19237721  0.81281469  0.48338983    -0.43200
N624        N  0.04104474  0.65797544  0.48439577    -0.43200
C625        C  0.36204466  0.77848449  0.50661036     0.00400
C626        C  0.37890341  0.78683939  0.46293789    -0.11500
C627        C  0.40677995  0.78891623  0.46188976     0.02700
C628        C  0.41813432  0.78241509  0.50523774     0.00300
C629        C  0.40238520  0.77677474  0.54999754    -0.11400
C630        C  0.37474902  0.77498671  0.55113698     0.02500
H631        H  0.36963853  0.79018323  0.42873356     0.15500
H632        H  0.41126860  0.77275566  0.58402834     0.15500
C633        C  0.35998118  0.76958826  0.59858198     0.37200
C634        C  0.42212605  0.79572000  0.41495424     0.37100
N635        N  0.34819026  0.76542110  0.63659883    -0.43200
N636        N  0.43447446  0.80125269  0.37738498    -0.43200
C637        C  0.24943825  0.74871017  0.80312123     0.00400
C638        C  0.24277961  0.72264103  0.77588610    -0.11500
C639        C  0.24358762  0.72216674  0.72319116     0.02700
C640        C  0.25018816  0.74790737  0.69676702     0.00300
C641        C  0.25669372  0.77386254  0.72398926    -0.11400
C642        C  0.25683859  0.77461873  0.77655554     0.02500
H643        H  0.23730017  0.70267675  0.79586912     0.15500
H644        H  0.26198665  0.79379718  0.70403814     0.15500
C645        C  0.26383862  0.80210642  0.80219710     0.37200
C646        C  0.23670355  0.69483000  0.69710451     0.37100
N647        N  0.26955399  0.82414128  0.82281932    -0.43200
N648        N  0.23127366  0.67298519  0.67607316    -0.43200
C649        C  0.25047733  0.74819894  0.19654727     0.00400
C650        C  0.26671700  0.77507809  0.22323942    -0.11500
C651        C  0.26791950  0.77609963  0.27575656     0.02700
C652        C  0.25203637  0.74965090  0.30262043     0.00300
C653        C  0.23562999  0.72274151  0.27537191    -0.11400
C654        C  0.23490476  0.72181772  0.22280560     0.02500
H655        H  0.27861655  0.79539030  0.20284745     0.15500
H656        H  0.22334158  0.70227036  0.29513723     0.15500
C657        C  0.21721347  0.69372459  0.19664350     0.37200
C658        C  0.28506020  0.80476450  0.30050406     0.37100
N659        N  0.20292999  0.67119065  0.17579407    -0.43200
N660        N  0.29893719  0.82781234  0.31998327    -0.43200
C661        C  0.27164955  0.85958041  0.00860361     0.00400
C662        C  0.25010540  0.86312442  0.03454384    -0.11500
C663        C  0.24979519  0.88970983  0.03466683     0.02700
C664        C  0.27158064  0.91395024  0.00914823     0.00300
C665        C  0.29419137  0.91144245  0.98544182    -0.11400
C666        C  0.29444790  0.88450243  0.98494948     0.02500
H667        H  0.23249076  0.84468055  0.05351653     0.15500
H668        H  0.31100908  0.93017330  0.96579357     0.15500
C669        C  0.31816431  0.88321333  0.95971044     0.37200
C670        C  0.22616090  0.89126497  0.05999582     0.37100
N671        N  0.33732048  0.88240442  0.93951234    -0.43200
N672        N  0.20718192  0.89242324  0.08017783    -0.43200
C673        C  0.22167576  0.63836268  0.00185159     0.00400
C674        C  0.22786118  0.62913630  0.04746690    -0.11500
C675        C  0.22770296  0.60227942  0.05032258     0.02700
C676        C  0.22174162  0.58429398  0.00675011     0.00300
C677        C  0.21409318  0.59261938  0.96174658    -0.11400
C678        C  0.21342083  0.61914595  0.95915004     0.02500
H679        H  0.23381765  0.64343927  0.08077424     0.15500
H680        H  0.20935613  0.57868165  0.92822761     0.15500
C681        C  0.20568739  0.62664361  0.91164982     0.37200
C682        C  0.23582027  0.59473062  0.09748597     0.37100
N683        N  0.19922814  0.63245956  0.87361619    -0.43200
N684        N  0.24232769  0.58871614  0.13528756    -0.43200
C685        C  0.13681762  0.72255345  0.00257202     0.00400
C686        C  0.12902290  0.73364732  0.04500755    -0.11500
C687        C  0.10218405  0.73354098  0.04680168     0.02700
C688        C  0.08220963  0.72212083  0.00568368     0.00300
C689        C  0.08892771  0.70957596  0.96427460    -0.11400
C690        C  0.11573170  0.70921156  0.96268685     0.02500
H691        H  0.14441897  0.74352219  0.07656337     0.15500
H692        H  0.07349487  0.70069307  0.93258116     0.15500
C693        C  0.12114727  0.69585661  0.91905271     0.37200
C694        C  0.09663260  0.74737270  0.08972564     0.37100
N695        N  0.12522920  0.68488453  0.88413458    -0.43200
N696        N  0.09222322  0.75858158  0.12393823    -0.43200
C697        C  0.35911986  0.77572114  0.00261790     0.00400
C698        C  0.37369830  0.77903207  0.95714991    -0.11500
C699        C  0.40047374  0.77880579  0.95572936     0.02700
C700        C  0.41333608  0.77575737  0.00047744     0.00300
C701        C  0.40001096  0.77488850  0.04634660    -0.11400
C702        C  0.37301059  0.77460585  0.04774225     0.02500
H703        H  0.36342425  0.78023103  0.92234844     0.15500
H704        H  0.40987625  0.77278449  0.08094331     0.15500
C705        C  0.35975894  0.77269438  0.09589559     0.37200
C706        C  0.41435794  0.78164504  0.90796686     0.37100
N707        N  0.34899498  0.77112552  0.13433708    -0.43200
N708        N  0.42569675  0.78414219  0.86984242    -0.43200
O709        O  0.80813075  0.25080469  0.03744743    -0.77900
C710        C  0.74667954  0.24768717  0.14733319     0.83100
O711        O  0.70983276  0.17490457  0.97775709    -0.79000
O712        O  0.68370562  0.24787712  0.03541989    -0.80500
O713        O  0.77927479  0.32033597  0.97776490    -0.80300
O714        O  0.81878571  0.28465489  0.97974800    -0.78900
Zn715      Zn  0.76438968  0.23130300  0.04844142     1.55700
O716        O  0.74737467  0.31117732  0.03910822    -0.80300
Cd717      Cd  0.77719505  0.27979502  0.96474121     1.59700
Cd718      Cd  0.71422619  0.21621000  0.96245191     1.59600
O719        O  0.76680311  0.26859882  0.88923425    -0.80300
O720        O  0.74619437  0.24817471  0.00664256    -1.90800
Cd721      Cd  0.72849073  0.26633329  0.05103595     1.59900
O722        O  0.72533372  0.22460649  0.88731418    -0.80300
O723        O  0.73440726  0.26067085  0.12608174    -0.78900
C724        C  0.72547984  0.16824066  0.00601267     0.83600
C725        C  0.82676449  0.27112196  0.01007329     0.83300
O726        O  0.75862365  0.23561892  0.12196336    -0.77900
C727        C  0.76616225  0.32884629  0.00843875     0.84100
O728        O  0.74666432  0.18794227  0.03304402    -0.78000
C729        C  0.74619922  0.24634704  0.86527931     0.84200
C730        C  0.66585683  0.22910806  0.00275407     0.84500
O731        O  0.67390477  0.21539191  0.97203899    -0.80400
O732        O  0.81532012  0.25389933  0.53630362    -0.77900
C733        C  0.75224590  0.25047935  0.64801194     0.83100
O734        O  0.71850993  0.17870623  0.47733591    -0.79000
O735        O  0.69573695  0.25595800  0.52928372    -0.80500
O736        O  0.78926943  0.32512051  0.47627184    -0.80300
O737        O  0.82595588  0.28530104  0.47394649    -0.78900
Zn738      Zn  0.77224847  0.23551068  0.54952864     1.55700
O739        O  0.75927924  0.31661698  0.54042254    -0.80300
Cd740      Cd  0.78538932  0.28348896  0.46250698     1.59700
Cd741      Cd  0.72266428  0.21983229  0.46289887     1.59600
O742        O  0.77292539  0.27250613  0.38756842    -0.80300
O743        O  0.75500232  0.25232133  0.50600935    -1.90800
Cd744      Cd  0.73870906  0.27155654  0.55015107     1.59900
O745        O  0.73257962  0.22778830  0.38760121    -0.80300
O746        O  0.74024970  0.26329476  0.62539593    -0.78900
C747        C  0.73412343  0.17236476  0.50619016     0.83600
C748        C  0.83355929  0.27208173  0.50565606     0.83300
O749        O  0.76587528  0.23981635  0.62355207    -0.77900
C750        C  0.77745415  0.33409874  0.50890261     0.84100
O751        O  0.75465329  0.19213289  0.53416702    -0.78000
C752        C  0.75223473  0.24989493  0.36449668     0.84200
C753        C  0.67690093  0.23651656  0.49873249     0.84500
O754        O  0.68274246  0.21945899  0.47214165    -0.80400
O755        O  0.55627560  0.24861803  0.97047356    -0.77900
C756        C  0.49731790  0.25265319  0.85745170     0.83100
O757        O  0.53582049  0.32326370  0.03421777    -0.79000
O758        O  0.93697090  0.25705515  0.96805915    -0.80500
O759        O  0.95643491  0.17852070  0.02119666    -0.80300
O760        O  0.53286121  0.21435830  0.02731821    -0.78900
Zn761      Zn  0.53148878  0.26764869  0.95717407     1.55700
O762        O  0.93361274  0.19180280  0.96488613    -0.80300
Cd763      Cd  0.49518968  0.21826239  0.03844176     1.59700
Cd764      Cd  0.49770818  0.28277812  0.04502400     1.59600
O765        O  0.99391175  0.22697849  0.11469707    -0.80300
O766        O  0.49683412  0.25141083  0.99848741    -1.90800
Cd767      Cd  0.96118256  0.23622385  0.95331639     1.59900
O768        O  0.99649946  0.27102048  0.11941476    -0.80300
O769        O  0.97235683  0.24164654  0.87850581    -0.78900
C770        C  0.55673037  0.33009111  0.00346432     0.83600
C771        C  0.55486773  0.22866740  0.99901797     0.83300
O772        O  0.52120676  0.26273857  0.88328033    -0.77900
C773        C  0.93443578  0.17229380  0.99191729     0.84100
O774        O  0.55681996  0.31099264  0.97291007    -0.78000
C775        C  0.99465790  0.24834051  0.14023193     0.84200
C776        C  0.93874310  0.27539685  0.00217645     0.84500
O777        O  0.96003498  0.28696044  0.03434852    -0.80400
O778        O  0.97857953  0.23743071  0.61567446    -0.77900
C779        C  0.94153878  0.26751426  0.50098279     0.83100
O780        O  0.96696993  0.17525891  0.46868528    -0.79000
O781        O  0.49773716  0.26703584  0.38145941    -0.80500
O782        O  0.56126879  0.31241690  0.53057629    -0.80300
O783        O  0.52739774  0.26285252  0.61857193    -0.78900
Zn784      Zn  0.96723172  0.23045098  0.54193465     1.55700
O785        O  0.53858381  0.32067222  0.46698227    -0.80300
Cd786      Cd  0.53686418  0.26793507  0.54340244     1.59700
Cd787      Cd  0.00275514  0.21689235  0.45556467     1.59600
O788        O  0.56426277  0.25166024  0.52692418    -0.80300
O789        O  0.00124327  0.24820177  0.49935053    -1.90800
Cd790      Cd  0.00037916  0.27917862  0.45679482     1.59900
O791        O  0.54245889  0.21673862  0.46662756    -0.80300
O792        O  0.96299658  0.28221359  0.47197458    -0.78900
C793        C  0.94552764  0.16771549  0.49845043     0.83600
C794        C  0.00290556  0.25011506  0.64063568     0.83300
O795        O  0.94080610  0.24761398  0.52892856    -0.77900
C796        C  0.56006407  0.32965366  0.49863094     0.84100
O797        O  0.94384198  0.18658367  0.52747697    -0.78000
C798        C  0.56440682  0.23277377  0.49602707     0.84200
C799        C  0.49804401  0.24567554  0.35771105     0.84500
O800        O  0.49988930  0.22534437  0.38058174    -0.80400
O801        O  0.80456952  0.06016390  0.96952524    -0.77900
C802        C  0.74860903  0.99816789  0.85581696     0.83100
O803        O  0.71175746  0.03571216  0.03272909    -0.79000
O804        O  0.68521502  0.43817778  0.97120535    -0.80500
O805        O  0.78072571  0.46173376  0.03610879    -0.80300
O806        O  0.81971733  0.03930428  0.02570754    -0.78900
Zn807      Zn  0.76149515  0.03331982  0.95479566     1.55700
O808        O  0.74894224  0.43852832  0.97211779    -0.80300
Cd809      Cd  0.77991818  0.00081510  0.03863106     1.59700
Cd810      Cd  0.71497693  0.99765321  0.04011842     1.59600
O811        O  0.77050312  0.00104663  0.11422498    -0.80300
O812        O  0.74675253  0.99916220  0.99640493    -1.90800
Cd813      Cd  0.72963069  0.46405488  0.95881432     1.59900
O814        O  0.72583273  0.99661511  0.11443698    -0.80300
O815        O  0.73380373  0.47431787  0.88414152    -0.78900
C816        C  0.72386169  0.05673095  0.00204557     0.83600
C817        C  0.82489071  0.06062694  0.99708517     0.83300
O818        O  0.75743426  0.02211011  0.88138053    -0.77900
C819        C  0.76764663  0.43998589  0.00478770     0.84100
O820        O  0.74167909  0.05742808  0.96904258    -0.78000
C821        C  0.74675375  0.50013617  0.14536397     0.84200
C822        C  0.66670787  0.44000445  0.99977409     0.84500
O823        O  0.67431216  0.46196374  0.03024371    -0.80400
O824        O  0.75350566  0.44100619  0.53070627    -0.77900
C825        C  0.74804217  0.49879053  0.64439310     0.83100
O826        O  0.67689002  0.46150208  0.47214885    -0.79000
O827        O  0.75647678  0.06281954  0.53142279    -0.80500
O828        O  0.82716612  0.03696094  0.46784726    -0.80300
O829        O  0.78794409  0.46471853  0.47386497    -0.78900
Zn830      Zn  0.73321829  0.46468988  0.54413033     1.55700
O831        O  0.81810650  0.06004274  0.53049097    -0.80300
Cd832      Cd  0.78320939  0.50196820  0.46194953     1.59700
Cd833      Cd  0.71767570  0.49942650  0.46093557     1.59600
O834        O  0.77381397  0.99920939  0.38018890    -0.80300
O835        O  0.74995733  0.49960071  0.50367406    -1.90800
Cd836      Cd  0.77382286  0.03586095  0.54337402     1.59900
O837        O  0.73201795  0.00104648  0.38059319    -0.80300
O838        O  0.76874493  0.02566930  0.61810979    -0.78900
C839        C  0.67029413  0.43987569  0.50089230     0.83600
C840        C  0.77400703  0.44288200  0.50264342     0.83300
O841        O  0.73695337  0.47486682  0.61813829    -0.77900
C842        C  0.83587252  0.05825167  0.50012527     0.84100
O843        O  0.68976560  0.43886964  0.52871314    -0.78000
C844        C  0.75270875  0.99993063  0.35696050     0.84200
C845        C  0.73612340  0.06220860  0.50389653     0.84500
O846        O  0.72094437  0.04066212  0.47289498    -0.80400
C847        C  0.75575748  0.00029613  0.69468306     0.00400
C848        C  0.75149782  0.02155263  0.72059678    -0.11500
C849        C  0.74905396  0.02125119  0.77280850     0.02700
C850        C  0.75103334  0.99934685  0.80038049     0.00300
C851        C  0.73525619  0.47261068  0.77965122    -0.11400
C852        C  0.73552055  0.47154822  0.72714593     0.02500
H853        H  0.74930240  0.03807657  0.69980452     0.15500
H854        H  0.72740869  0.45215915  0.79945050     0.15500
C855        C  0.72492779  0.44293019  0.70269515     0.37200
C856        C  0.74326733  0.04299138  0.79659393     0.37100
N857        N  0.71634546  0.41990204  0.68344604    -0.43200
N858        N  0.73861342  0.06040442  0.81561673    -0.43200
C859        C  0.74860482  0.99837457  0.19391032     0.00400
C860        C  0.77421293  0.00242313  0.21919734    -0.11500
C861        C  0.77618203  0.00292478  0.27172130     0.02700
C862        C  0.75202828  0.99934337  0.30084046     0.00300
C863        C  0.72230868  0.48703787  0.28148625    -0.11400
C864        C  0.72069427  0.48653746  0.22893384     0.02500
H865        H  0.79309486  0.00545063  0.19790148     0.15500
H866        H  0.70199609  0.47626465  0.30223405     0.15500
C867        C  0.69182159  0.47082053  0.20480370     0.37200
C868        C  0.80360936  0.00764366  0.29405266     0.37100
N869        N  0.66867469  0.45813679  0.18555187    -0.43200
N870        N  0.82561028  0.01139513  0.31175225    -0.43200
C871        C  0.63954621  0.41465523  0.50151700     0.00400
C872        C  0.62350195  0.40329040  0.45607213    -0.11500
C873        C  0.59667368  0.37631637  0.45414733     0.02700
C874        C  0.58513934  0.36057903  0.49863695     0.00300
C875        C  0.60015820  0.37323958  0.54444385    -0.11400
C876        C  0.62705614  0.39980543  0.54626332     0.02500
H877        H  0.63289174  0.41446027  0.42147790     0.15500
H878        H  0.59136185  0.36173064  0.57902762     0.15500
C879        C  0.64153164  0.41103231  0.59467636     0.37200
C880        C  0.58306909  0.36412234  0.40556556     0.37100
N881        N  0.65302890  0.41986975  0.63355851    -0.43200
N882        N  0.57236584  0.35432408  0.36650899    -0.43200
C883        C  0.92115254  0.13657241  0.49930648     0.00400
C884        C  0.90665223  0.12617823  0.54472949    -0.11500
C885        C  0.88010824  0.09944466  0.54646716     0.02700
C886        C  0.86707119  0.08258833  0.50176307     0.00300
C887        C  0.88293645  0.09148871  0.45709627    -0.11400
C888        C  0.90986119  0.11822030  0.45552627     0.02500
H889        H  0.91561911  0.13953516  0.57895568     0.15500
H890        H  0.87344020  0.07854087  0.42266531     0.15500
C891        C  0.92412342  0.12717279  0.40782106     0.37200
C892        C  0.86653978  0.09016025  0.59469819     0.37100
N893        N  0.93554616  0.13424273  0.36955032    -0.43200
N894        N  0.85566376  0.08269944  0.63330188    -0.43200
C895        C  0.49878143  0.25306356  0.80185064     0.00400
C896        C  0.52205659  0.25132833  0.77885841    -0.11500
C897        C  0.52395227  0.25058534  0.72651029     0.02700
C898        C  0.00221705  0.25098825  0.69619096     0.00300
C899        C  0.97943704  0.25360320  0.71906314    -0.11400
C900        C  0.97779687  0.25488138  0.77137234     0.02500
H901        H  0.53863493  0.25002920  0.80186077     0.15500
H902        H  0.96316045  0.25534311  0.69591291     0.15500
C903        C  0.95513680  0.25991648  0.79215885     0.37200
C904        C  0.54805912  0.24804236  0.70545639     0.37100
N905        N  0.93705320  0.26417966  0.80849922    -0.43200
N906        N  0.56743421  0.24605956  0.68872108    -0.43200
C907        C  0.49625236  0.24480920  0.30186535     0.00400
C908        C  0.98189845  0.25851371  0.27822108    -0.11500
C909        C  0.98061783  0.25945907  0.22576816     0.02700
C910        C  0.99400833  0.24684309  0.19582050     0.00300
C911        C  0.50633171  0.23119557  0.21927546    -0.11400
C912        C  0.50744884  0.23006735  0.27167879     0.02500
H913        H  0.97153204  0.26830808  0.30068147     0.15500
H914        H  0.51559109  0.22031368  0.19673847     0.15500
C915        C  0.52141007  0.21467047  0.29303674     0.37200
C916        C  0.96451471  0.27257603  0.20385752     0.37100
N917        N  0.53264717  0.20233696  0.30998616    -0.43200
N918        N  0.95147206  0.28297897  0.18647292    -0.43200
C919        C  0.58210419  0.36071982  0.00264578     0.00400
C920        C  0.59612261  0.37113378  0.95677228    -0.11500
C921        C  0.62264496  0.39790440  0.95443289     0.02700
C922        C  0.63593273  0.41493375  0.99883152     0.00300
C923        C  0.62088360  0.40566508  0.04417926    -0.11400
C924        C  0.59426719  0.37873491  0.04652878     0.02500
H925        H  0.58667006  0.35789282  0.92256741     0.15500
H926        H  0.63086433  0.41853878  0.07851335     0.15500
C927        C  0.58138657  0.36911734  0.09506037     0.37200
C928        C  0.63576837  0.40722653  0.90590208     0.37100
N929        N  0.57118885  0.36141852  0.13405726    -0.43200
N930        N  0.64617141  0.41463605  0.86695276    -0.43200
C931        C  0.90837882  0.14188461  0.99056020     0.00400
C932        C  0.90166124  0.12461547  0.03356042    -0.11500
C933        C  0.87518202  0.09753770  0.03631194     0.02700
C934        C  0.85489202  0.08707993  0.99513810     0.00300
C935        C  0.86243710  0.10362413  0.95131716    -0.11400
C936        C  0.88867567  0.13061948  0.94861142     0.02500
H937        H  0.91645596  0.13292660  0.06612217     0.15500
H938        H  0.84743051  0.09567985  0.91898667     0.15500
C939        C  0.89456014  0.14615500  0.90207721     0.37200
C940        C  0.86868946  0.08208997  0.08294591     0.37100
N941        N  0.89912781  0.15854226  0.86477126    -0.43200
N942        N  0.86350412  0.06979008  0.12040921    -0.43200
C943        C  0.78091308  0.41839469  0.50380574     0.00400
C944        C  0.78035381  0.40582561  0.55019989    -0.11500
C945        C  0.78168279  0.37967604  0.55304027     0.02700
C946        C  0.78311473  0.36510028  0.50866702     0.00300
C947        C  0.78589860  0.37882902  0.46251026    -0.11400
C948        C  0.78477378  0.40521707  0.45974303     0.02500
H949        H  0.77804292  0.41607913  0.58441583     0.15500
H950        H  0.78698856  0.36794886  0.42811656     0.15500
C951        C  0.78498965  0.41678407  0.41087620     0.37200
C952        C  0.78130226  0.36819046  0.60209310     0.37100
N953        N  0.78505769  0.42601801  0.37170965    -0.43200
N954        N  0.78110970  0.35906444  0.64141117    -0.43200
C955        C  0.72950104  0.14174205  0.50724749     0.00400
C956        C  0.73998705  0.13384295  0.54961066    -0.11500
C957        C  0.74073493  0.10741201  0.55042226     0.02700
C958        C  0.73105732  0.08796255  0.50769338     0.00300
C959        C  0.71848294  0.09472727  0.46669608    -0.11400
C960        C  0.71755533  0.12126097  0.46613491     0.02500
H961        H  0.74838320  0.14879369  0.58217245     0.15500
H962        H  0.71057693  0.07992946  0.43394201     0.15500
C963        C  0.70569914  0.12744907  0.42176639     0.37200
C964        C  0.75184231  0.10119477  0.59582520     0.37100
N965        N  0.69610789  0.13235697  0.38623387    -0.43200
N966        N  0.76080871  0.09630215  0.63215452    -0.43200
C967        C  0.64791358  0.23502084  0.49362096     0.00400
C968        C  0.62186083  0.20768643  0.48587161    -0.11500
C969        C  0.59404663  0.20598181  0.48551256     0.02700
C970        C  0.59230909  0.23202079  0.49267854     0.00300
C971        C  0.61845951  0.25928340  0.49803336    -0.11400
C972        C  0.64595110  0.26108835  0.49834121     0.02500
H973        H  0.62316058  0.18759616  0.48194559     0.16100
H974        H  0.61744783  0.27955190  0.50204778     0.15500
C975        C  0.67174708  0.29026127  0.50273145     0.37200
C976        C  0.56782384  0.17730579  0.48068425     0.37100
N977        N  0.69230306  0.31363909  0.50636812    -0.43200
N978        N  0.54686448  0.15422931  0.47701543    -0.43200
C979        C  0.86382290  0.27628911  0.50571074     0.00400
C980        C  0.87747463  0.27814163  0.45966998    -0.11500
C981        C  0.90341103  0.27633332  0.45739323     0.02700
C982        C  0.91629890  0.27301260  0.50189205     0.00300
C983        C  0.90349238  0.27271842  0.54810499    -0.11400
C984        C  0.87762500  0.27450832  0.55040792     0.02500
H985        H  0.86689774  0.27912855  0.42509496     0.15500
H986        H  0.91347221  0.27057038  0.58251098     0.15500
C987        C  0.86560280  0.27432191  0.59914823     0.37200
C988        C  0.91483031  0.27525708  0.40867569     0.37100
N989        N  0.85583963  0.27419398  0.63803796    -0.43200
N990        N  0.92401052  0.27416161  0.36979261    -0.43200
C991        C  0.74633100  0.24626910  0.80994481     0.00400
C992        C  0.75454282  0.22801050  0.78362265    -0.11500
C993        C  0.75655434  0.22875243  0.73108921     0.02700
C994        C  0.75018030  0.24818046  0.70384977     0.00300
C995        C  0.74117942  0.26583505  0.73077874    -0.11400
C996        C  0.73925341  0.26501423  0.78317048     0.02500
H997        H  0.75976226  0.21337679  0.80428545     0.15500
H998        H  0.73581338  0.28061616  0.71098378     0.15500
C999        C  0.72939335  0.28317770  0.80879658     0.37200
C1000       C  0.76473613  0.20894492  0.70656932     0.37100
N1001       N  0.72131636  0.29752390  0.82951682    -0.43200
N1002       N  0.77126782  0.19300914  0.68707607    -0.43200
C1003       C  0.74767801  0.24736131  0.20291097     0.00400
C1004       C  0.75070053  0.27210074  0.23018225    -0.11500
C1005       C  0.75272845  0.27353057  0.28264901     0.02700
C1006       C  0.75077048  0.24942819  0.30905783     0.00300
C1007       C  0.74714784  0.22439059  0.28203064    -0.11400
C1008       C  0.74616443  0.22335872  0.22937186     0.02500
H1009       H  0.75208868  0.29073165  0.21036494     0.15500
H1010       H  0.74567141  0.20581137  0.30215191     0.15500
C1011       C  0.74323888  0.19728989  0.20372121     0.37200
C1012       C  0.75617056  0.29975427  0.30845319     0.37100
N1013       N  0.74111168  0.17645696  0.18332033    -0.43200
N1014       N  0.75903474  0.32085541  0.32895902    -0.43200
C1015       C  0.77184165  0.35979539  0.00801668     0.00400
C1016       C  0.76811024  0.37235813  0.05266889    -0.11500
C1017       C  0.76872443  0.39954845  0.05297203     0.02700
C1018       C  0.77275198  0.41458491  0.00778422     0.00300
C1019       C  0.77790124  0.40289016  0.96359590    -0.11400
C1020       C  0.77792980  0.37597064  0.96340455     0.02500
H1021       H  0.76368826  0.36040162  0.08728280     0.15500
H1022       H  0.78102389  0.41441890  0.92875907     0.15500
C1023       C  0.78243260  0.36478525  0.91622459     0.37200
C1024       C  0.76272627  0.41033093  0.09928031     0.37100
N1025       N  0.78618285  0.35598603  0.87835665    -0.43200
N1026       N  0.75785159  0.41904640  0.13621513    -0.43200
C1027       C  0.72007595  0.13727040  0.00751878     0.00400
C1028       C  0.73294699  0.12992253  0.04745909    -0.11500
C1029       C  0.73257612  0.10288521  0.04767160     0.02700
C1030       C  0.71937299  0.08248499  0.00716268     0.00300
C1031       C  0.70513540  0.08883763  0.96847514    -0.11400
C1032       C  0.70481735  0.11568414  0.96878151     0.02500
H1033       H  0.74425085  0.14575462  0.07814113     0.15500
H1034       H  0.69482222  0.07305496  0.93736403     0.15500
C1035       C  0.68949952  0.12065178  0.92805098     0.37200
C1036       C  0.74767441  0.09741164  0.08825922     0.37100
N1037       N  0.67694742  0.12444036  0.89559027    -0.43200
N1038       N  0.75980582  0.09302676  0.12068557    -0.43200
C1039       C  0.63514910  0.22401194  0.00043119     0.00400
C1040       C  0.62097014  0.22292489  0.04562218    -0.11500
C1041       C  0.59377053  0.22235806  0.04590280     0.02700
C1042       C  0.58037028  0.22336277  0.00022475     0.00300
C1043       C  0.59397563  0.22332540  0.95492448    -0.11400
C1044       C  0.62096621  0.22342773  0.95459614     0.02500
H1045       H  0.63166817  0.22345420  0.08105284     0.15500
H1046       H  0.58397275  0.22428537  0.91963719     0.15500
C1047       C  0.63467487  0.22537421  0.90691302     0.37200
C1048       C  0.58136998  0.22318805  0.09375126     0.37100
N1049       N  0.64560027  0.22703407  0.86860232    -0.43200
N1050       N  0.57149094  0.22393597  0.13211169    -0.43200
C1051       C  0.85809333  0.27793574  0.01196853     0.00400
C1052       C  0.87508349  0.28799888  0.96858558    -0.11500
C1053       C  0.90264711  0.28948054  0.96567065     0.02700
C1054       C  0.91380536  0.28114415  0.00682950     0.00300
C1055       C  0.89828210  0.27388202  0.05171258    -0.11400
C1056       C  0.87066253  0.27216460  0.05469098     0.02500
H1057       H  0.86622031  0.29329624  0.93590989     0.15500
H1058       H  0.90697430  0.26784826  0.08375987     0.15500
C1059       C  0.85567756  0.26398689  0.10192931     0.37200
C1060       C  0.91913193  0.29969965  0.92020839     0.37100
N1061       N  0.84382467  0.25744377  0.13991466    -0.43200
N1062       N  0.93243362  0.30832087  0.88393031    -0.43200
O1063       O  0.80986822  0.74996156  0.02987441    -0.77900
C1064       C  0.75016953  0.74842495  0.14245194     0.83100
O1065       O  0.71235482  0.67592359  0.97034319    -0.79000
O1066       O  0.68696524  0.74745014  0.03299895    -0.80500
O1067       O  0.78208540  0.82192264  0.97459099    -0.80300
O1068       O  0.82097363  0.78437909  0.97279291    -0.78900
Zn1069     Zn  0.76660860  0.73150050  0.04306369     1.55700
O1070       O  0.74909573  0.80992771  0.03468936    -0.80300
Cd1071     Cd  0.77979770  0.78094411  0.95990896     1.59700
Cd1072     Cd  0.71646097  0.71711471  0.95651447     1.59600
O1073       O  0.76917703  0.76985042  0.88445410    -0.80300
O1074       O  0.74882404  0.74855930  0.00108007    -1.90800
Cd1075     Cd  0.73143408  0.76596146  0.04671373     1.59900
O1076       O  0.72741961  0.72622992  0.88128342    -0.80300
O1077       O  0.73805401  0.76152775  0.12147330    -0.78900
C1078       C  0.72727111  0.66904199  0.99991417     0.83600
C1079       C  0.82847953  0.77001209  0.00208130     0.83300
O1080       O  0.76164732  0.73586511  0.11719037    -0.77900
C1081       C  0.76780044  0.82886329  0.00559917     0.84100
O1082       O  0.74800032  0.68832510  0.02808292    -0.78000
C1083       C  0.74853946  0.74803041  0.85964654     0.84200
C1084       C  0.66827396  0.72875591  0.00130685     0.84500
O1085       O  0.67576359  0.71531359  0.96898837    -0.80400
O1086       O  0.81205223  0.75142138  0.53269450    -0.77900
C1087       C  0.74954390  0.74815397  0.64207869     0.83100
O1088       O  0.71322269  0.67661088  0.46938139    -0.79000
O1089       O  0.69107208  0.75360100  0.52484161    -0.80500
O1090       O  0.78547671  0.82191876  0.47219933    -0.80300
O1091       O  0.82325584  0.78540105  0.47490985    -0.78900
Zn1092     Zn  0.76814583  0.73225709  0.54322044     1.55700
O1093       O  0.75494042  0.81328242  0.53543856    -0.80300
Cd1094     Cd  0.78233502  0.78109112  0.45964439     1.59700
Cd1095     Cd  0.71862343  0.71850660  0.45563409     1.59600
O1096       O  0.77294619  0.77067874  0.38444379    -0.80300
O1097       O  0.75090133  0.74961189  0.50086453    -1.90800
Cd1098     Cd  0.73428788  0.76849808  0.54518841     1.59900
O1099       O  0.73040066  0.72805338  0.38102288    -0.80300
O1100       O  0.73795871  0.76162022  0.62036232    -0.78900
C1101       C  0.72833061  0.66968850  0.49848742     0.83600
C1102       C  0.83086341  0.77173871  0.50541915     0.83300
O1103       O  0.76158471  0.73593618  0.61727201    -0.77900
C1104       C  0.77348866  0.83077126  0.50447099     0.84100
O1105       O  0.74935087  0.68908760  0.52621851    -0.78000
C1106       C  0.75195404  0.74945339  0.35944520     0.84200
C1107       C  0.67273275  0.73540371  0.49217967     0.84500
O1108       O  0.67889104  0.71914816  0.46394290    -0.80400
O1109       O  0.55783801  0.74694708  0.97243669    -0.77900
C1110       C  0.49692643  0.74625577  0.85967420     0.83100
O1111       O  0.53535672  0.82204741  0.02930240    -0.79000
O1112       O  0.93675732  0.74992065  0.96845303    -0.80500
O1113       O  0.95943876  0.67613074  0.03222064    -0.80300
O1114       O  0.53607465  0.71476481  0.03322293    -0.78900
Zn1115     Zn  0.53232598  0.76497611  0.95824824     1.55700
O1116       O  0.93634954  0.68624379  0.97159540    -0.80300
Cd1117     Cd  0.49796136  0.71759764  0.04477989     1.59700
Cd1118     Cd  0.49832655  0.78125754  0.04324276     1.59600
O1119       O  0.99808661  0.72960880  0.11959589    -0.80300
O1120       O  0.49817924  0.74874698  0.00086858    -1.90800
Cd1121     Cd  0.96220217  0.73028674  0.95633283     1.59900
O1122       O  0.99945521  0.77300692  0.11785871    -0.80300
O1123       O  0.97241915  0.73411225  0.88119727    -0.78900
C1124       C  0.55647553  0.82849678  0.99921209     0.83600
C1125       C  0.55724045  0.72820219  0.00298268     0.83300
O1126       O  0.52119137  0.75850590  0.88475350    -0.77900
C1127       C  0.93762977  0.66813430  0.00154838     0.84100
O1128       O  0.55716276  0.80881379  0.97096962    -0.78000
C1129       C  0.99876596  0.75184002  0.14207873     0.84200
C1130       C  0.93847878  0.76984587  0.99906178     0.84500
O1131       O  0.96021032  0.78362730  0.02994954    -0.80400
O1132       O  0.97974348  0.74337323  0.61701399    -0.77900
C1133       C  0.94373006  0.77748598  0.50443544     0.83100
O1134       O  0.96257007  0.68080795  0.47267465    -0.79000
O1135       O  0.50025869  0.77473801  0.38393961    -0.80500
O1136       O  0.56210688  0.81839123  0.53394346    -0.80300
O1137       O  0.52852756  0.76607324  0.62031068    -0.78900
Zn1138     Zn  0.96781818  0.73888748  0.54423383     1.55700
O1139       O  0.54002421  0.82753969  0.47054279    -0.80300
Cd1140     Cd  0.53761877  0.77359524  0.54473810     1.59700
Cd1141     Cd  0.00000435  0.72203187  0.45850785     1.59600
O1142       O  0.56482439  0.75764755  0.52318794    -0.80300
O1143       O  0.00132822  0.75515935  0.50116209    -1.90800
Cd1144     Cd  0.00155676  0.78695583  0.45889553     1.59900
O1145       O  0.53935862  0.72032174  0.46810948    -0.80300
O1146       O  0.96447921  0.79102083  0.47353642    -0.78900
C1147       C  0.94126183  0.67511800  0.50204362     0.83600
C1148       C  0.00399039  0.75391820  0.64189891     0.83300
O1149       O  0.94347080  0.75821383  0.53335803    -0.77900
C1150       C  0.56140391  0.83603946  0.50225005     0.84100
O1151       O  0.94149986  0.69555744  0.52948484    -0.78000
C1152       C  0.56296683  0.73731015  0.49343844     0.84200
C1153       C  0.49904018  0.75241534  0.36089729     0.84500
O1154       O  0.49800731  0.73085047  0.38446915    -0.80400
O1155       O  0.80804370  0.55894177  0.97629976    -0.77900
C1156       C  0.74567660  0.49909390  0.86272574     0.83100
O1157       O  0.71264843  0.53752950  0.03506531    -0.79000
O1158       O  0.68451974  0.93790715  0.96122838    -0.80500
O1159       O  0.78383760  0.96312416  0.02612322    -0.80300
O1160       O  0.81986886  0.53729548  0.03622198    -0.78900
Zn1161     Zn  0.76435619  0.53425426  0.96207366     1.55700
O1162       O  0.74660161  0.93670397  0.97152435    -0.80300
Cd1163     Cd  0.77870913  0.50029130  0.04799906     1.59700
Cd1164     Cd  0.71520922  0.49948358  0.04606863     1.59600
O1165       O  0.76875175  0.50136900  0.12267440    -0.80300
O1166       O  0.74716455  0.49998193  0.00374441    -1.90800
Cd1167     Cd  0.72952600  0.96315438  0.95180286     1.59900
O1168       O  0.72491017  0.49906697  0.12150845    -0.80300
O1169       O  0.73797265  0.97330309  0.87687830    -0.78900
C1170       C  0.72677910  0.55886251  0.00566422     0.83600
C1171       C  0.82706635  0.55834105  0.00593926     0.83300
O1172       O  0.75806332  0.52325849  0.88837263    -0.77900
C1173       C  0.76750647  0.93949052  0.00029171     0.84100
O1174       O  0.74623823  0.55967456  0.97623902    -0.78000
C1175       C  0.74822258  0.99863487  0.13779198     0.84200
C1176       C  0.66627391  0.93876926  0.99178400     0.84500
O1177       O  0.67426439  0.95986274  0.02431150    -0.80400
O1178       O  0.75489896  0.94072810  0.52494446    -0.77900
C1179       C  0.75643389  0.00083230  0.63925738     0.83100
O1180       O  0.68120378  0.96484883  0.46944481    -0.79000
O1181       O  0.74731897  0.55997605  0.53641224    -0.80500
O1182       O  0.82366752  0.54164006  0.47660596    -0.80300
O1183       O  0.78848029  0.96208558  0.46616336    -0.78900
Zn1184     Zn  0.73731523  0.96624068  0.53980741     1.55700
O1185       O  0.81072710  0.56228035  0.53754448    -0.80300
Cd1186     Cd  0.78546876  0.99986443  0.45457281     1.59700
Cd1187     Cd  0.72263434  0.00182603  0.45635882     1.59600
O1188       O  0.77189302  0.50137838  0.38681243    -0.80300
O1189       O  0.75441584  0.00042503  0.49817648    -1.90800
Cd1190     Cd  0.76666385  0.53484007  0.54943864     1.59900
O1191       O  0.72804663  0.49932059  0.38623685    -0.80300
O1192       O  0.76066338  0.52378328  0.62367161    -0.78900
C1193       C  0.67425571  0.94362368  0.49936552     0.83600
C1194       C  0.77435255  0.94106064  0.49608790     0.83300
O1195       O  0.74393755  0.97660198  0.61381268    -0.77900
C1196       C  0.83010239  0.56299239  0.50810114     0.84100
O1197       O  0.69370744  0.94228933  0.52668019    -0.78000
C1198       C  0.74996451  0.50045843  0.36331555     0.84200
C1199       C  0.72760173  0.55879784  0.50650993     0.84500
O1200       O  0.71395414  0.53725319  0.47491455    -0.80400
C1201       C  0.74622986  0.49795740  0.70017554     0.00400
C1202       C  0.75548953  0.52469159  0.72732138    -0.11500
C1203       C  0.75497791  0.52571197  0.77977484     0.02700
C1204       C  0.74530305  0.49947251  0.80682500     0.00300
C1205       C  0.75582746  0.97834573  0.77444801    -0.11400
C1206       C  0.75843522  0.97879595  0.72210237     0.02500
H1207       H  0.76317922  0.54513237  0.70754713     0.15500
H1208       H  0.75807223  0.96184610  0.79519107     0.15500
C1209       C  0.76530452  0.95794009  0.69779536     0.37200
C1210       C  0.76419046  0.55410135  0.80412830     0.37100
N1211       N  0.77108257  0.94143586  0.67831953    -0.43200
N1212       N  0.77152944  0.57691037  0.82333001    -0.43200
C1213       C  0.74693018  0.50012291  0.20112691     0.00400
C1214       C  0.77426212  0.51378783  0.22720463    -0.11500
C1215       C  0.77587718  0.51421491  0.27971621     0.02700
C1216       C  0.74966154  0.50061809  0.30754886     0.00300
C1217       C  0.72634271  0.99504643  0.27557192    -0.11400
C1218       C  0.72433028  0.99443527  0.22305146     0.02500
H1219       H  0.79458326  0.52456545  0.20647509     0.15500
H1220       H  0.70745925  0.99196810  0.29691860     0.15500
C1221       C  0.69682552  0.98951528  0.20077947     0.37200
C1222       C  0.80477151  0.52969458  0.30378282     0.37100
N1223       N  0.67474364  0.98554476  0.18309438    -0.43200
N1224       N  0.82793632  0.54212094  0.32300968    -0.43200
C1225       C  0.64309389  0.91923397  0.50223390     0.00400
C1226       C  0.62476803  0.90974535  0.45888741    -0.11500
C1227       C  0.59710778  0.88363916  0.45831053     0.02700
C1228       C  0.58718264  0.86668602  0.50209617     0.00300
C1229       C  0.60453956  0.87768515  0.54632586    -0.11400
C1230       C  0.63211973  0.90341516  0.54680077     0.02500
H1231       H  0.63278416  0.92174481  0.42451535     0.15500
H1232       H  0.59703939  0.86545105  0.58060462     0.15500
C1233       C  0.64883601  0.91261158  0.59367129     0.37200
C1234       C  0.58060447  0.87383846  0.41135017     0.37100
N1235       N  0.66220330  0.91979850  0.63122228    -0.43200
N1236       N  0.56749020  0.86605818  0.37358481    -0.43200
C1237       C  0.91495523  0.64461300  0.50505041     0.00400
C1238       C  0.89515644  0.63947877  0.54408496    -0.11500
C1239       C  0.86845860  0.61294288  0.54709318     0.02700
C1240       C  0.86028421  0.59010539  0.50987712     0.00300
C1241       C  0.88081078  0.59446056  0.47225492    -0.11400
C1242       C  0.90794358  0.62118527  0.46976842     0.02500
H1243       H  0.90026831  0.65661273  0.57260026     0.15500
H1244       H  0.87539924  0.57723894  0.44380975     0.15500
C1245       C  0.92773438  0.62395826  0.43009867     0.37200
C1246       C  0.85003805  0.61044496  0.58906261     0.37100
N1247       N  0.94368259  0.62605767  0.39848585    -0.43200
N1248       N  0.83538772  0.60863928  0.62268962    -0.43200
C1249       C  0.49779077  0.74681375  0.80384960     0.00400
C1250       C  0.52402391  0.75241113  0.78020617    -0.11500
C1251       C  0.52656776  0.75437206  0.72792713     0.02700
C1252       C  0.00289694  0.75171228  0.69755873     0.00300
C1253       C  0.97655092  0.74564520  0.72121046    -0.11400
C1254       C  0.97381162  0.74310591  0.77328007     0.02500
H1255       H  0.54266746  0.75496528  0.80262159     0.15500
H1256       H  0.95781671  0.74297877  0.69893010     0.15500
C1257       C  0.94582774  0.73672018  0.79402591     0.37200
C1258       C  0.55362158  0.75840143  0.70648753     0.37100
N1259       N  0.92322290  0.73133258  0.81017191    -0.43200
N1260       N  0.57526932  0.76142801  0.68949242    -0.43200
C1261       C  0.49909831  0.75182225  0.30499754     0.00400
C1262       C  0.99031604  0.77031558  0.27856048    -0.11500
C1263       C  0.99028348  0.77079035  0.22597603     0.02700
C1264       C  0.99879194  0.75287901  0.19800003     0.00300
C1265       C  0.50725495  0.73435094  0.22431585    -0.11400
C1266       C  0.50750724  0.73393358  0.27682291     0.02500
H1267       H  0.98343612  0.78393714  0.29931110     0.15500
H1268       H  0.51387688  0.72053569  0.20352419     0.15500
C1269       C  0.51765995  0.71574185  0.30040271     0.37200
C1270       C  0.98075771  0.78942788  0.20217182     0.37100
N1271       N  0.52590135  0.70126258  0.31931309    -0.43200
N1272       N  0.97318327  0.80442726  0.18319515    -0.43200
C1273       C  0.58149811  0.85929732  0.99680581     0.00400
C1274       C  0.59572851  0.86875239  0.95084490    -0.11500
C1275       C  0.62226627  0.89547713  0.94757554     0.02700
C1276       C  0.63543880  0.91348045  0.99117973     0.00300
C1277       C  0.62005476  0.90513747  0.03644787    -0.11400
C1278       C  0.59335325  0.87832540  0.03964573     0.02500
H1279       H  0.58646664  0.85473622  0.91735732     0.15500
H1280       H  0.62975561  0.91871592  0.07023004     0.15500
C1281       C  0.57994717  0.86994788  0.08812130     0.37200
C1282       C  0.63553000  0.90359466  0.89891999     0.37100
N1283       N  0.56923465  0.86322765  0.12700006    -0.43200
N1284       N  0.64606024  0.91000068  0.85985700    -0.43200
C1285       C  0.91226795  0.63732229  0.00103400     0.00400
C1286       C  0.90337346  0.62178205  0.04596351    -0.11500
C1287       C  0.87646286  0.59498791  0.04821857     0.02700
C1288       C  0.85795900  0.58335684  0.00483035     0.00300
C1289       C  0.86806827  0.59777515  0.95932109    -0.11400
C1290       C  0.89483072  0.62427205  0.95696430     0.02500
H1291       H  0.91659716  0.63136396  0.08001088     0.15500
H1292       H  0.85454397  0.58869200  0.92540870     0.15500
C1293       C  0.90360088  0.63773268  0.90864563     0.37200
C1294       C  0.86751436  0.58111884  0.09615388     0.37100
N1295       N  0.91065561  0.64861368  0.87003454    -0.43200
N1296       N  0.86028922  0.56994136  0.13451379    -0.43200
C1297       C  0.77995292  0.91591405  0.49820360     0.00400
C1298       C  0.77699895  0.90258957  0.54465973    -0.11500
C1299       C  0.77704535  0.87592141  0.54820567     0.02700
C1300       C  0.77970861  0.86175418  0.50440045     0.00300
C1301       C  0.78509035  0.87625525  0.45851434    -0.11400
C1302       C  0.78527058  0.90318133  0.45506886     0.02500
H1303       H  0.77382362  0.91268128  0.57829297     0.15500
H1304       H  0.78739351  0.86571614  0.42467085     0.15500
C1305       C  0.78873707  0.91595481  0.40629103     0.37200
C1306       C  0.77412781  0.86360057  0.59731894     0.37100
N1307       N  0.79155166  0.92616093  0.36716099    -0.43200
N1308       N  0.77187095  0.85383295  0.63671594    -0.43200
C1309       C  0.72218287  0.63864329  0.50142679     0.00400
C1310       C  0.72993444  0.63037601  0.54643198    -0.11500
C1311       C  0.72978255  0.60361186  0.55000633     0.02700
C1312       C  0.72194838  0.58418568  0.50750722     0.00300
C1313       C  0.71164804  0.59117879  0.46370895    -0.11400
C1314       C  0.71159998  0.61809615  0.46036801     0.02500
H1315       H  0.73705865  0.64538907  0.57894359     0.15500
H1316       H  0.70514026  0.57637469  0.43101148     0.15500
C1317       C  0.70227387  0.62463709  0.41349549     0.37200
C1318       C  0.73832780  0.59716760  0.59785039     0.37100
N1319       N  0.69463938  0.62967333  0.37586176    -0.43200
N1320       N  0.74526594  0.59221562  0.63623836    -0.43200
C1321       C  0.64425035  0.73498727  0.48602898     0.00400
C1322       C  0.61729069  0.70818109  0.48381466    -0.11500
C1323       C  0.59019895  0.70807576  0.48449901     0.02700
C1324       C  0.59005827  0.73512939  0.48722346     0.00300
C1325       C  0.61702923  0.76173259  0.48638083    -0.11400
C1326       C  0.64384849  0.76191587  0.48551020     0.02500
H1327       H  0.61739877  0.68741469  0.48385873     0.16100
H1328       H  0.61718590  0.78265816  0.48694490     0.15500
C1329       C  0.67073262  0.79019640  0.48365984     0.37200
C1330       C  0.56306427  0.68015418  0.48578180     0.37100
N1331       N  0.69226032  0.81279503  0.48211272    -0.43200
N1332       N  0.54122285  0.65783278  0.48700686    -0.43200
C1333       C  0.86211000  0.77875111  0.50797545     0.00400
C1334       C  0.87880163  0.78696008  0.46411167    -0.11500
C1335       C  0.90663812  0.78897343  0.46277869     0.02700
C1336       C  0.91815750  0.78261091  0.50605337     0.00300
C1337       C  0.90257143  0.77707066  0.55098367    -0.11400
C1338       C  0.87494664  0.77531211  0.55239104     0.02500
H1339       H  0.86941360  0.79019985  0.42995934     0.15500
H1340       H  0.91157346  0.77310695  0.58492553     0.15500
C1341       C  0.86032772  0.76999856  0.59997027     0.37200
C1342       C  0.92172753  0.79546713  0.41560199     0.37100
N1343       N  0.84866671  0.76590252  0.63810592    -0.43200
N1344       N  0.93386423  0.80072287  0.37783378    -0.43200
C1345       C  0.74913206  0.74821500  0.80389423     0.00400
C1346       C  0.74031135  0.72166679  0.77643796    -0.11500
C1347       C  0.74088243  0.72116642  0.72372419     0.02700
C1348       C  0.74952626  0.74743578  0.69756790     0.00300
C1349       C  0.75810672  0.77384452  0.72490928    -0.11400
C1350       C  0.75841603  0.77456850  0.77745723     0.02500
H1351       H  0.73329180  0.70131865  0.79622996     0.15500
H1352       H  0.76491059  0.79414021  0.70504106     0.15500
C1353       C  0.76758625  0.80257793  0.80315046     0.37200
C1354       C  0.73162216  0.69334441  0.69728199     0.37100
N1355       N  0.77504599  0.82502227  0.82381631    -0.43200
N1356       N  0.72424480  0.67110308  0.67594465    -0.43200
C1357       C  0.75113303  0.74815250  0.19755608     0.00400
C1358       C  0.76703254  0.77508358  0.22426325    -0.11500
C1359       C  0.76817560  0.77612490  0.27679050     0.02700
C1360       C  0.75249811  0.74965315  0.30366125     0.00300
C1361       C  0.73648798  0.72268378  0.27642422    -0.11400
C1362       C  0.73590180  0.72173201  0.22384785     0.02500
H1363       H  0.77871513  0.79542381  0.20387591     0.15500
H1364       H  0.72441480  0.70218991  0.29621421     0.15500
C1365       C  0.71869298  0.69354856  0.19770301     0.37200
C1366       C  0.78504950  0.80482022  0.30155990     0.37100
N1367       N  0.70482325  0.67093992  0.17685098    -0.43200
N1368       N  0.79872914  0.82788221  0.32108621    -0.43200
C1369       C  0.77085070  0.85890372  0.00722578     0.00400
C1370       C  0.74754907  0.86147599  0.02842584    -0.11500
C1371       C  0.74710132  0.88796312  0.02817398     0.02700
C1372       C  0.77040191  0.91303064  0.00677135     0.00300
C1373       C  0.79453080  0.91135035  0.98757520    -0.11400
C1374       C  0.79493474  0.88447916  0.98751774     0.02500
H1375       H  0.72884929  0.84239652  0.04408894     0.15500
H1376       H  0.81254233  0.93071254  0.97120328     0.15500
C1377       C  0.82026303  0.88394881  0.96736809     0.37200
C1378       C  0.72207421  0.88872924  0.04955860     0.37100
N1379       N  0.84069405  0.88370562  0.95130294    -0.43200
N1380       N  0.70203310  0.88930407  0.06666457    -0.43200
C1381       C  0.72142401  0.63819096  0.00196415     0.00400
C1382       C  0.72701319  0.62861315  0.04769298    -0.11500
C1383       C  0.72686918  0.60175954  0.05034984     0.02700
C1384       C  0.72156446  0.58417134  0.00644998     0.00300
C1385       C  0.71452700  0.59286897  0.96125566    -0.11400
C1386       C  0.71383075  0.61938278  0.95883668     0.02500
H1387       H  0.73250493  0.64265333  0.08126003     0.15500
H1388       H  0.71030030  0.57924282  0.92748027     0.15500
C1389       C  0.70684435  0.62734600  0.91111822     0.37200
C1390       C  0.73435145  0.59383337  0.09772780     0.37100
N1391       N  0.70099421  0.63353070  0.87288738    -0.43200
N1392       N  0.74034504  0.58751883  0.13570948    -0.43200
C1393       C  0.63748002  0.72382748  0.00262404     0.00400
C1394       C  0.62923150  0.73403364  0.04562343    -0.11500
C1395       C  0.60251440  0.73420112  0.04710692     0.02700
C1396       C  0.58303951  0.72372341  0.00524453     0.00300
C1397       C  0.59036810  0.71237254  0.96295143    -0.11400
C1398       C  0.61715288  0.71200928  0.96142368     0.02500
H1399       H  0.64420849  0.74302544  0.07788219     0.15500
H1400       H  0.57545652  0.70450087  0.93050154     0.15500
C1401       C  0.62352839  0.70063100  0.91626068     0.37200
C1402       C  0.59668852  0.74751598  0.09045823     0.37100
N1403       N  0.62843940  0.69137559  0.87998851    -0.43200
N1404       N  0.59210801  0.75840745  0.12493756    -0.43200
C1405       C  0.85924986  0.77556223  0.00289229     0.00400
C1406       C  0.87386848  0.77923441  0.95735456    -0.11500
C1407       C  0.90066675  0.77906283  0.95562009     0.02700
C1408       C  0.91350976  0.77573025  0.00012989     0.00300
C1409       C  0.90015174  0.77450837  0.04610612    -0.11400
C1410       C  0.87312944  0.77415459  0.04781053     0.02500
H1411       H  0.86360839  0.78066845  0.92271294     0.15500
H1412       H  0.91001298  0.77217627  0.08052026     0.15500
C1413       C  0.85985282  0.77185976  0.09605855     0.37200
C1414       C  0.91459055  0.78224636  0.90780402     0.37100
N1415       N  0.84908016  0.76997924  0.13458979    -0.43200
N1416       N  0.92594939  0.78502222  0.86962656    -0.43200
loop_ 
_geom_bond_atom_site_label_1 
_geom_bond_atom_site_label_2 
_geom_bond_distance 
_geom_bond_site_symmetry_2 
_ccdc_geom_bond_type 
O1           C17   1.274       .  A
O1           Zn7   2.014       .  S
C2           O18   1.272       .  A
C2           O15   1.275       .  A
C2          C295   1.482       .  S
O3           C16   1.278   1_556  A
O3          Cd10   2.097       .  S
O4           C22   1.275       .  A
O4          Cd13   2.072       .  S
O5           C19   1.276   1_556  A
O5           Cd9   2.081       .  S
O6           C17   1.277   1_556  A
O6           Cd9   2.088       .  S
Zn7          O18   2.010       .  S
Zn7          O20   2.004       .  S
Zn7          O12   1.940       .  S
O8           C19   1.275       .  A
O8          Cd13   2.069       .  S
Cd9          O11   2.074       .  S
Cd9          O12   2.011   1_556  S
Cd10         O14   2.084       .  S
Cd10         O23   2.100       .  S
Cd10         O12   2.017   1_556  S
O11          C21   1.275       .  A
O12         Cd13   1.997       .  S
Cd13         O15   2.069       .  S
O14          C21   1.276       .  A
C16          O20   1.274       .  A
C16         C319   1.495       .  S
C17         C343   1.490       .  S
C19         C307   1.487       .  S
C21         C283   1.475       .  S
C22          O23   1.279   1_554  A
C22         C331   1.488       .  S
O24          C40   1.274       .  A
O24         Zn30   1.997       .  S
C25          O41   1.274       .  A
C25          O38   1.274       .  A
C25         C286   1.496       .  S
O26          C39   1.276       .  A
O26         Cd33   2.088       .  S
O27          C45   1.272       .  A
O27         Cd36   2.036       .  S
O28          C42   1.277       .  A
O28         Cd32   2.097       .  S
O29          C40   1.278       .  A
O29         Cd32   2.088       .  S
Zn30         O41   2.031       .  S
Zn30         O43   2.003       .  S
Zn30         O35   1.929       .  S
O31          C42   1.274       .  A
O31         Cd36   2.064       .  S
Cd32         O34   2.072       .  S
Cd32         O35   2.013       .  S
Cd33         O37   2.075       .  S
Cd33         O46   2.088       .  S
Cd33         O35   2.020       .  S
O34          C44   1.275       .  A
O35         Cd36   1.980       .  S
Cd36         O38   2.069       .  S
O37          C44   1.275       .  A
C39          O43   1.274       .  A
C39         C247   1.491       .  S
C40         C271   1.482       .  S
C42         C238   1.490       .  S
C44         C298   1.477       .  S
C45          O46   1.277       .  A
C45         C259   1.479       .  S
O47          C63   1.273       .  A
O47         Zn53   2.012       .  S
C48          O64   1.273   1_655  A
C48         O769   1.273       .  A
C48         C187   1.484       .  S
O49          C62   1.277       .  A
O49         Cd56   2.090   1_455  S
O50          C68   1.274   1_556  A
O50         Cd59   2.066       .  S
O51          C65   1.278   1_554  A
O51        Cd763   2.088       .  S
O52          C63   1.278   1_554  A
O52         Cd55   2.096   1_455  S
Zn53         O64   2.013       .  S
Zn53         O66   2.002       .  S
Zn53         O58   1.937   1_455  S
O54          C65   1.275       .  A
O54         Cd59   2.062       .  S
Cd55        O759   2.089       .  S
Cd55        O765   2.072       .  S
Cd55         O58   2.013   1_554  S
Cd56        O768   2.075       .  S
Cd56        O777   2.085       .  S
Cd56         O58   2.013   1_554  S
O57          C67   1.276       .  A
O57        Cd763   2.072       .  S
O58        Cd767   1.994       .  S
Cd59         O61   2.067       .  S
Cd59        O766   1.994       .  S
O60          C67   1.275       .  A
O60        Cd764   2.073       .  S
O61         C756   1.273       .  A
C62          O66   1.274   1_554  A
C62         C211   1.486       .  S
C63         C334   1.486   1_556  S
C65         C223   1.489       .  S
C67         C202   1.486       .  S
C68          O69   1.276       .  A
C68         C346   1.478       .  S
O69        Cd764   2.086       .  S
O70          C86   1.274       .  A
O70         Zn76   2.021       .  S
C71          O87   1.274       .  A
C71          O84   1.275       .  A
C71         C274   1.479       .  S
O72          C85   1.275       .  A
O72         Cd79   2.082       .  S
O73          C91   1.275       .  A
O73        Cd790   2.067   1_655  S
O74          C88   1.273       .  A
O74         Cd78   2.055       .  S
O75         C794   1.272       .  A
O75         Cd78   2.060       .  S
Zn76         O87   2.011       .  S
Zn76         O89   2.014       .  S
Zn76         O81   1.935       .  S
O77          C88   1.277       .  A
O77        Cd790   2.096       .  S
Cd78         O80   2.037       .  S
Cd78        O789   1.981       .  S
Cd79        O791   2.092       .  S
Cd79        O800   2.075       .  S
Cd79         O81   2.019       .  S
O80          C90   1.272       .  A
O81         Cd82   2.009       .  S
O81        Cd786   1.980       .  S
Cd82         O84   2.075       .  S
Cd82        O781   2.066       .  S
Cd82        O785   2.097       .  S
O83          C90   1.276       .  A
O83        Cd787   2.092       .  S
C85          O89   1.276       .  A
C85         C175   1.484       .  S
C86         O783   1.272       .  A
C86         C190   1.481       .  S
C88         C166   1.488       .  S
C90         C262   1.478       .  S
C91          O92   1.276       .  A
C91         C199   1.487       .  S
O92        Cd787   2.077   1_655  S
O93         C109   1.273       .  A
O93         Zn99   2.000       .  S
C94         O110   1.273   1_565  A
C94         O461   1.274       .  A
C94         C142   1.483       .  S
O95         C108   1.276       .  A
O95        Cd102   2.085   1_545  S
O96         C114   1.273   1_556  A
O96        Cd105   2.056       .  S
O97         C111   1.276       .  A
O97        Cd455   2.080       .  S
O98         C109   1.276   1_554  A
O98        Cd101   2.087       .  S
Zn99        O110   2.009       .  S
Zn99        O112   2.016       .  S
Zn99        O104   1.931   1_545  S
O100        C111   1.274   1_556  A
O100       Cd105   2.060       .  S
Cd101       O103   2.076       .  S
Cd101       O451   2.091   1_545  S
Cd101       O104   2.017   1_544  S
Cd102       O106   2.066       .  S
Cd102       O469   2.089       .  S
Cd102       O104   2.005   1_554  S
O103        C467   1.277   1_545  A
O104       Cd459   1.990       .  S
Cd105       O107   2.056       .  S
Cd105       O458   1.990   1_556  S
O106        C467   1.274       .  A
O107        C448   1.272       .  A
C108        O112   1.273   1_554  A
C108        C322   1.476       .  S
C109        C226   1.488       .  S
C111        C310   1.476       .  S
C113        O457   1.275       .  A
C113        O460   1.275       .  A
C113        C505   1.485       .  S
C114        O115   1.277       .  A
C114        C214   1.485   1_554  S
O115       Cd456   2.091       .  S
O116        C132   1.275       .  A
O116       Zn122   2.011       .  S
C117        O133   1.272       .  A
C117        O484   1.273       .  A
C117        C493   1.490       .  S
O118        C131   1.277       .  A
O118       Cd125   2.094       .  S
O119        C137   1.271       .  A
O119       Cd128   2.041       .  S
O120        C134   1.276       .  A
O120       Cd478   2.091   1_545  S
O121        C132   1.279       .  A
O121       Cd124   2.102       .  S
Zn122       O133   2.013       .  S
Zn122       O135   2.012       .  S
Zn122       O127   1.938       .  S
O123        C134   1.272       .  A
O123       Cd128   2.046       .  S
Cd124       O474   2.120       .  S
Cd124       O480   2.078       .  S
Cd124       O127   2.021       .  S
Cd125       O483   2.068       .  S
Cd125       O492   2.099       .  S
Cd125       O127   2.019       .  S
O126        C136   1.274   1_565  A
O126       Cd478   2.061       .  S
O127       Cd482   1.979       .  S
Cd128       O130   2.058       .  S
Cd128       O481   1.979       .  S
O129        C136   1.279       .  A
O129       Cd479   2.085       .  S
O130        C471   1.272       .  A
C131        O135   1.274       .  A
C131        C163   1.486       .  S
C132        C235   1.487       .  S
C134        C178   1.485       .  S
C136        C154   1.495   1_545  S
C137        O138   1.279       .  A
C137        C250   1.491       .  S
O138       Cd479   2.104       .  S
C139        C471   1.478       .  S
C139        C140   1.402       .  A
C139        C498   1.412   1_545  A
C140        C141   1.398       .  A
C140        H145   1.085       .  S
C141        C142   1.415   1_545  A
C141        C148   1.445       .  S
C142        C497   1.407       .  A
C143        C144   1.399       .  A
C143        C496   1.407       .  A
C143        H146   1.084       .  S
C144        C493   1.417       .  A
C144        C147   1.445       .  S
C147        N149   1.158       .  T
C148        N150   1.157       .  T
C151        C467   1.496       .  S
C151        C152   1.407   1_565  A
C151        C510   1.419       .  A
C152        C153   1.401       .  A
C152        H157   1.084       .  S
C153        C154   1.419   1_545  A
C153        C160   1.445       .  S
C154        C509   1.406       .  A
C155        C156   1.401       .  A
C155        C508   1.406       .  A
C155        H158   1.085       .  S
C156        C505   1.414       .  A
C156        C159   1.445       .  S
C159        N161   1.157       .  T
C160        N162   1.158       .  T
C163        C164   1.406       .  A
C163        C168   1.413       .  A
C164        C165   1.407       .  A
C164        H169   1.084       .  S
C165        C166   1.415       .  A
C165        C172   1.444       .  S
C166        C167   1.405       .  A
C167        C168   1.399       .  A
C167        H170   1.085       .  S
C168        C171   1.445       .  S
C171        N173   1.157       .  T
C172        N174   1.157       .  T
C175        C176   1.403       .  A
C175        C180   1.416       .  A
C176        C177   1.396       .  A
C176        H181   1.085       .  S
C177        C178   1.414       .  A
C177        C184   1.445       .  S
C178        C179   1.406       .  A
C179        C180   1.406       .  A
C179        H182   1.085       .  S
C180        C183   1.444       .  S
C183        N185   1.157       .  T
C184        N186   1.157       .  T
C187        C188   1.406   1_655  A
C187        C900   1.414       .  A
C188        C189   1.401       .  A
C188        H193   1.085       .  S
C189        C898   1.413       .  A
C189        C196   1.444       .  S
C190        C191   1.404       .  A
C190        C897   1.413       .  A
C191        C192   1.400       .  A
C191        H194   1.085       .  S
C192        C895   1.414       .  A
C192        C195   1.444       .  S
C195        N197   1.157       .  T
C196        N198   1.157       .  T
C199        C204   1.415   1_655  A
C199        C908   1.407       .  A
C200        C201   1.401       .  A
C200        C907   1.407       .  A
C200        H205   1.085       .  S
C201        C202   1.414       .  A
C201        C208   1.445       .  S
C202        C911   1.405       .  A
C203        C204   1.400       .  A
C203        C910   1.404   1_455  A
C203        H206   1.085       .  S
C204        C207   1.444       .  S
C207        N209   1.157       .  T
C208        N210   1.158       .  T
C211        C212   1.405   1_554  A
C211        C216   1.415       .  A
C212        C213   1.398       .  A
C212        H217   1.085       .  S
C213        C214   1.414       .  A
C213        C220   1.446       .  S
C214        C215   1.406   1_556  A
C215        C216   1.405       .  A
C215        H218   1.085       .  S
C216        C219   1.443       .  S
C219        N221   1.157       .  T
C220        N222   1.157       .  T
C223        C224   1.408   1_556  A
C223        C228   1.415       .  A
C224        C225   1.406       .  A
C224        H229   1.084       .  S
C225        C226   1.415   1_554  A
C225        C232   1.444       .  S
C226        C227   1.405       .  A
C227        C228   1.397       .  A
C227        H230   1.085       .  S
C228        C231   1.445       .  S
C231        N233   1.157       .  T
C232        N234   1.157       .  T
C235        C236   1.405       .  A
C235        C240   1.413       .  A
C236        C237   1.401       .  A
C236        H241   1.085       .  S
C237        C238   1.414       .  A
C237        C244   1.445       .  S
C238        C239   1.408       .  A
C239        C240   1.407       .  A
C239        H242   1.084       .  S
C240        C243   1.444       .  S
C243        N245   1.157       .  T
C244        N246   1.157       .  T
C247        C248   1.405       .  A
C247        C252   1.416       .  A
C248        C249   1.397       .  A
C248        H253   1.085       .  S
C249        C250   1.418       .  A
C249        C256   1.446       .  S
C250        C251   1.407       .  A
C251        C252   1.407       .  A
C251        H254   1.084       .  S
C252        C255   1.443       .  S
C255        N257   1.157       .  T
C256        N258   1.158       .  T
C259        C260   1.407       .  A
C259        C264   1.414       .  A
C260        C261   1.408       .  A
C260        H265   1.084       .  S
C261        C262   1.412       .  A
C261        C268   1.442       .  S
C262        C263   1.401       .  A
C263        C264   1.389       .  A
C263        H266   1.086       .  S
C264        C267   1.447       .  S
C267        N269   1.158       .  T
C268        N270   1.157       .  T
C271        C272   1.405       .  A
C271        C276   1.414       .  A
C272        C273   1.403       .  A
C272        H277   1.084       .  S
C273        C274   1.413       .  A
C273        C280   1.445       .  S
C274        C275   1.403       .  A
C275        C276   1.399       .  A
C275        H278   1.085       .  S
C276        C279   1.445       .  S
C279        N281   1.157       .  T
C280        N282   1.157       .  T
C283        C284   1.400       .  A
C283        C288   1.407       .  A
C284        C285   1.405       .  A
C284        H289   1.085       .  S
C285        C286   1.421       .  A
C285        C292   1.444       .  S
C286        C287   1.409       .  A
C287        C288   1.401       .  A
C287        H290   1.085       .  S
C288        C291   1.445       .  S
C291        N293   1.157       .  T
C292        N294   1.158       .  T
C295        C296   1.404       .  A
C295        C300   1.416       .  A
C296        C297   1.399       .  A
C296        H301   1.085       .  S
C297        C298   1.411       .  A
C297        C304   1.444       .  S
C298        C299   1.403       .  A
C299        C300   1.402       .  A
C299        H302   1.085       .  S
C300        C303   1.445       .  S
C303        N305   1.158       .  T
C304        N306   1.157       .  T
C307        C308   1.407       .  A
C307        C312   1.416   1_554  A
C308        C309   1.400       .  A
C308        H313   1.085       .  S
C309        C310   1.410       .  A
C309        C316   1.445       .  S
C310        C311   1.403   1_554  A
C311        C312   1.403       .  A
C311        H314   1.085       .  S
C312        C315   1.444       .  S
C315        N317   1.157       .  T
C316        N318   1.157       .  T
C319        C320   1.410       .  A
C319        C324   1.419   1_554  A
C320        C321   1.399       .  A
C320        H325   1.085       .  S
C321        C322   1.408       .  A
C321        C328   1.445       .  S
C322        C323   1.402   1_554  A
C323        C324   1.407       .  A
C323        H326   1.085       .  S
C324        C327   1.443       .  S
C327        N329   1.157       .  T
C328        N330   1.157       .  T
C331        C332   1.407       .  A
C331        C336   1.414   1_554  A
C332        C333   1.404       .  A
C332        H337   1.085       .  S
C333        C334   1.412       .  A
C333        C340   1.444       .  S
C334        C335   1.406   1_554  A
C335        C336   1.404       .  A
C335        H338   1.085       .  S
C336        C339   1.444       .  S
C339        N341   1.157       .  T
C340        N342   1.157       .  T
C343        C344   1.407   1_554  A
C343        C348   1.418       .  A
C344        C345   1.403       .  A
C344        H349   1.085       .  S
C345        C346   1.410   1_556  A
C345        C352   1.443       .  S
C346        C347   1.401       .  A
C347        C348   1.401       .  A
C347        H350   1.085       .  S
C348        C351   1.445       .  S
C351        N353   1.157       .  T
C352        N354   1.157       .  T
O355        C371   1.273       .  A
O355       Zn361   2.002       .  S
C356        O372   1.271       .  A
C356        O369   1.270       .  A
C356        C649   1.468       .  S
O357        C370   1.277       .  A
O357       Cd364   2.090       .  S
O358        C376   1.273       .  A
O358       Cd367   2.046       .  S
O359        C373   1.278   1_556  A
O359       Cd363   2.107       .  S
O360        C371   1.277   1_556  A
O360       Cd363   2.090       .  S
Zn361       O372   2.015       .  S
Zn361       O374   1.987       .  S
Zn361       O366   1.934       .  S
O362        C373   1.272       .  A
O362       Cd367   2.037       .  S
Cd363       O365   2.075       .  S
Cd363       O366   2.018   1_556  S
Cd364       O368   2.091       .  S
Cd364       O377   2.111       .  S
Cd364       O366   2.021   1_556  S
O365        C375   1.277       .  A
O366       Cd367   1.978       .  S
Cd367       O369   2.055       .  S
O368        C375   1.279       .  A
C370        O374   1.272   1_556  A
C370        C673   1.483   1_556  S
C371        C697   1.482       .  S
C373        C661   1.495       .  S
C375        C637   1.485       .  S
C376        O377   1.280   1_554  A
C376        C685   1.497       .  S
O378        C394   1.275       .  A
O378       Zn384   2.017       .  S
C379        O395   1.274       .  A
C379        O392   1.273       .  A
C379        C640   1.482       .  S
O380        C393   1.278       .  A
O380       Cd387   2.098       .  S
O381        C399   1.273       .  A
O381       Cd390   2.049       .  S
O382        C396   1.274       .  A
O382       Cd386   2.071       .  S
O383        C394   1.274       .  A
O383       Cd386   2.068       .  S
Zn384       O395   2.029       .  S
Zn384       O397   1.999       .  S
Zn384       O389   1.930       .  S
O385        C396   1.272       .  A
O385       Cd390   2.050       .  S
Cd386       O388   2.055       .  S
Cd386       O389   2.008       .  S
Cd387       O391   2.082       .  S
Cd387       O400   2.103       .  S
Cd387       O389   2.022       .  S
O388        C398   1.273       .  A
O389       Cd390   1.981       .  S
Cd390       O392   2.066       .  S
O391        C398   1.278       .  A
C393        O397   1.275       .  A
C393        C601   1.489       .  S
C394        C625   1.483       .  S
C396        C592   1.480       .  S
C398        C652   1.487       .  S
C399        O400   1.278       .  A
C399        C613   1.482       .  S
O401        C417   1.273   1_556  A
O401       Zn407   2.012       .  S
C402        O418   1.273   1_655  A
C402       O1123   1.273       .  A
C402        C541   1.489       .  S
O403        C416   1.276   1_554  A
O403       Cd410   2.085   1_455  S
O404        C422   1.273       .  A
O404       Cd413   2.060       .  S
O405        C419   1.278       .  A
O405      Cd1117   2.101       .  S
O406        C417   1.277       .  A
O406       Cd409   2.090   1_455  S
Zn407       O418   2.012       .  S
Zn407       O420   2.011       .  S
Zn407       O412   1.940   1_456  S
O408        C419   1.274   1_556  A
O408       Cd413   2.056       .  S
Cd409      O1113   2.099       .  S
Cd409      O1119   2.075       .  S
Cd409       O412   2.015       .  S
Cd410      O1122   2.066       .  S
Cd410      O1131   2.085       .  S
Cd410       O412   2.012       .  S
O411        C421   1.277       .  A
O411      Cd1117   2.074       .  S
O412      Cd1121   1.988   1_554  S
Cd413       O415   2.065       .  S
Cd413      O1120   1.987   1_556  S
O414        C421   1.274       .  A
O414      Cd1118   2.066       .  S
O415       C1110   1.273       .  A
C416        O420   1.274       .  A
C416        C565   1.486       .  S
C417        C688   1.476       .  S
C419        C577   1.490       .  S
C421        C556   1.490       .  S
C422        O423   1.276   1_556  A
C422        C700   1.479   1_556  S
O423      Cd1118   2.087       .  S
O424        C440   1.273       .  A
O424       Zn430   2.004       .  S
C425        O441   1.273       .  A
C425        O438   1.276       .  A
C425        C628   1.485       .  S
O426        C439   1.278       .  A
O426       Cd433   2.110       .  S
O427        C445   1.276       .  A
O427      Cd1144   2.071   1_655  S
O428        C442   1.274       .  A
O428       Cd432   2.055       .  S
O429       C1148   1.274       .  A
O429       Cd432   2.072       .  S
Zn430       O441   1.995       .  S
Zn430       O443   2.003       .  S
Zn430       O435   1.923       .  S
O431        C442   1.277       .  A
O431      Cd1144   2.097       .  S
Cd432       O434   2.047       .  S
Cd432      O1143   1.985       .  S
Cd433      O1145   2.098       .  S
Cd433      O1154   2.071       .  S
Cd433       O435   2.019       .  S
O434        C444   1.273       .  A
O435      Cd1140   1.985       .  S
O435       Cd436   2.015       .  S
Cd436      O1135   2.068       .  S
Cd436      O1139   2.095       .  S
Cd436       O438   2.085       .  S
O437        C444   1.278       .  A
O437      Cd1141   2.100       .  S
C439        O443   1.274       .  A
C439        C529   1.503       .  S
C440       O1137   1.274       .  A
C440        C544   1.489       .  S
C442        C520   1.492       .  S
C444        C616   1.483       .  S
C445        O446   1.276       .  A
C445        C553   1.489       .  S
O446      Cd1141   2.070   1_655  S
O447        C463   1.275   1_556  A
O447       Zn453   2.013       .  S
C448        O464   1.272       .  A
C448        C496   1.490       .  S
O449        C462   1.276       .  A
O449       Cd456   2.079       .  S
O450        C468   1.275       .  A
O450       Cd459   2.064       .  S
O451        C465   1.276       .  A
O452        C463   1.276       .  A
O452       Cd455   2.087       .  S
Zn453       O464   2.013       .  S
Zn453       O466   2.004       .  S
Zn453       O458   1.934   1_556  S
O454        C465   1.272   1_556  A
O454       Cd459   2.053       .  S
Cd455       O457   2.067       .  S
Cd455       O458   2.008       .  S
Cd456       O460   2.073       .  S
Cd456       O458   2.011       .  S
Cd459       O461   2.072       .  S
C462        O466   1.273   1_554  A
C462        C676   1.472       .  S
C463        C580   1.489       .  S
C465        C664   1.472       .  S
C468        O469   1.278   1_556  A
C468        C568   1.489       .  S
O470        C486   1.272       .  A
O470       Zn476   1.990       .  S
C471        O487   1.272   1_545  A
O472        C485   1.278       .  A
O472       Cd479   2.099   1_565  S
O473        C491   1.271       .  A
O473       Cd482   2.043       .  S
O474        C488   1.280       .  A
O475        C486   1.275       .  A
O475       Cd478   2.078       .  S
Zn476       O487   2.015       .  S
Zn476       O489   2.002       .  S
Zn476       O481   1.930   1_565  S
O477        C488   1.271       .  A
O477       Cd482   2.050       .  S
Cd478       O481   2.012   1_565  S
Cd479       O481   2.019       .  S
O480        C490   1.278       .  A
Cd482       O484   2.056       .  S
O483        C490   1.277       .  A
C485        O489   1.273       .  A
C485        C517   1.489       .  S
C486        C589   1.478       .  S
C488        C532   1.505       .  S
C490        C508   1.486       .  S
C491        O492   1.278       .  A
C491        C604   1.490       .  S
C493        C494   1.407       .  A
C494        C495   1.399       .  A
C494        H499   1.084       .  S
C495        C496   1.416       .  A
C495        C502   1.445       .  S
C497        C498   1.402       .  A
C497        H500   1.084       .  S
C498        C501   1.445       .  S
C501        N503   1.157       .  T
C502        N504   1.157       .  T
C505        C506   1.406       .  A
C506        C507   1.400       .  A
C506        H511   1.085       .  S
C507        C508   1.414       .  A
C507        C514   1.445       .  S
C509        C510   1.401       .  A
C509        H512   1.084       .  S
C510        C513   1.445       .  S
C513        N515   1.157       .  T
C514        N516   1.157       .  T
C517        C518   1.407       .  A
C517        C522   1.415       .  A
C518        C519   1.408       .  A
C518        H523   1.084       .  S
C519        C520   1.417       .  A
C519        C526   1.444       .  S
C520        C521   1.405       .  A
C521        C522   1.397       .  A
C521        H524   1.085       .  S
C522        C525   1.446       .  S
C525        N527   1.157       .  T
C526        N528   1.157       .  T
C529        C530   1.406       .  A
C529        C534   1.418       .  A
C530        C531   1.398       .  A
C530        H535   1.085       .  S
C531        C532   1.421       .  A
C531        C538   1.446       .  S
C532        C533   1.411       .  A
C533        C534   1.413       .  A
C533        H536   1.084       .  S
C534        C537   1.443       .  S
C537        N539   1.157       .  T
C538        N540   1.158       .  T
C541        C542   1.407   1_655  A
C541       C1254   1.416       .  A
C542        C543   1.401       .  A
C542        H547   1.085       .  S
C543       C1252   1.415       .  A
C543        C550   1.444       .  S
C544       C1251   1.415       .  A
C544        C545   1.406       .  A
C545        C546   1.398       .  A
C545        H548   1.085       .  S
C546       C1249   1.415       .  A
C546        C549   1.444       .  S
C549        N551   1.157       .  T
C550        N552   1.157       .  T
C553       C1262   1.406       .  A
C553        C558   1.416   1_655  A
C554       C1261   1.406       .  A
C554        C555   1.401       .  A
C554        H559   1.085       .  S
C555        C556   1.418       .  A
C555        C562   1.445       .  S
C556       C1265   1.406       .  A
C557       C1264   1.405   1_455  A
C557        C558   1.399       .  A
C557        H560   1.085       .  S
C558        C561   1.445       .  S
C561        N563   1.157       .  T
C562        N564   1.158       .  T
C565        C566   1.404       .  A
C565        C570   1.414   1_556  A
C566        C567   1.399       .  A
C566        H571   1.085       .  S
C567        C568   1.415       .  A
C567        C574   1.445       .  S
C568        C569   1.407   1_556  A
C569        C570   1.405       .  A
C569        H572   1.085       .  S
C570        C573   1.444       .  S
C573        N575   1.157       .  T
C574        N576   1.157       .  T
C577        C578   1.408       .  A
C577        C582   1.415   1_554  A
C578        C579   1.409       .  A
C578        H583   1.084       .  S
C579        C580   1.416       .  A
C579        C586   1.444       .  S
C580        C581   1.403   1_554  A
C581        C582   1.397       .  A
C581        H584   1.085       .  S
C582        C585   1.445       .  S
C585        N587   1.157       .  T
C586        N588   1.158       .  T
C589        C590   1.404       .  A
C589        C594   1.412       .  A
C590        C591   1.395       .  A
C590        H595   1.085       .  S
C591        C592   1.412       .  A
C591        C598   1.445       .  S
C592        C593   1.406       .  A
C593        C594   1.403       .  A
C593        H596   1.084       .  S
C594        C597   1.444       .  S
C597        N599   1.157       .  T
C598        N600   1.157       .  T
C601        C602   1.404       .  A
C601        C606   1.415       .  A
C602        C603   1.395       .  A
C602        H607   1.085       .  S
C603        C604   1.417       .  A
C603        C610   1.446       .  S
C604        C605   1.408       .  A
C605        C606   1.408       .  A
C605        H608   1.084       .  S
C606        C609   1.443       .  S
C609        N611   1.157       .  T
C610        N612   1.158       .  T
C613        C614   1.407       .  A
C613        C618   1.413       .  A
C614        C615   1.410       .  A
C614        H619   1.084       .  S
C615        C616   1.413       .  A
C615        C622   1.442       .  S
C616        C617   1.403       .  A
C617        C618   1.394       .  A
C617        H620   1.085       .  S
C618        C621   1.447       .  S
C621        N623   1.158       .  T
C622        N624   1.157       .  T
C625        C626   1.406       .  A
C625        C630   1.412       .  A
C626        C627   1.403       .  A
C626        H631   1.084       .  S
C627        C628   1.415       .  A
C627        C634   1.444       .  S
C628        C629   1.406       .  A
C629        C630   1.398       .  A
C629        H632   1.085       .  S
C630        C633   1.445       .  S
C633        N635   1.157       .  T
C634        N636   1.157       .  T
C637        C638   1.406       .  A
C637        C642   1.414       .  A
C638        C639   1.405       .  A
C638        H643   1.085       .  S
C639        C640   1.413       .  A
C639        C646   1.444       .  S
C640        C641   1.403       .  A
C641        C642   1.400       .  A
C641        H644   1.085       .  S
C642        C645   1.444       .  S
C645        N647   1.157       .  T
C646        N648   1.157       .  T
C649        C650   1.398       .  A
C649        C654   1.408       .  A
C650        C651   1.399       .  A
C650        H655   1.086       .  S
C651        C652   1.420       .  A
C651        C658   1.445       .  S
C652        C653   1.407       .  A
C653        C654   1.400       .  A
C653        H656   1.085       .  S
C654        C657   1.444       .  S
C657        N659   1.157       .  T
C658        N660   1.158       .  T
C661        C662   1.410       .  A
C661        C666   1.419   1_554  A
C662        C663   1.392       .  A
C662        H667   1.084       .  S
C663        C664   1.405       .  A
C663        C670   1.446       .  S
C664        C665   1.403   1_554  A
C665        C666   1.409       .  A
C665        H668   1.085       .  S
C666        C669   1.443       .  S
C669        N671   1.157       .  T
C670        N672   1.157       .  T
C673        C674   1.408       .  A
C673        C678   1.414   1_554  A
C674        C675   1.398       .  A
C674        H679   1.085       .  S
C675        C676   1.408       .  A
C675        C682   1.445       .  S
C676        C677   1.403   1_554  A
C677        C678   1.402       .  A
C677        H680   1.085       .  S
C678        C681   1.443       .  S
C681        N683   1.157       .  T
C682        N684   1.157       .  T
C685        C686   1.411       .  A
C685        C690   1.418   1_554  A
C686        C687   1.398       .  A
C686        H691   1.084       .  S
C687        C688   1.406       .  A
C687        C694   1.445       .  S
C688        C689   1.404   1_554  A
C689        C690   1.408       .  A
C689        H692   1.085       .  S
C690        C693   1.443       .  S
C693        N695   1.157       .  T
C694        N696   1.157       .  T
C697        C698   1.404   1_554  A
C697        C702   1.415       .  A
C698        C699   1.403       .  A
C698        H703   1.085       .  S
C699        C700   1.412   1_556  A
C699        C706   1.444       .  S
C700        C701   1.402       .  A
C701        C702   1.401       .  A
C701        H704   1.085       .  S
C702        C705   1.445       .  S
C705        N707   1.157       .  T
C706        N708   1.157       .  T
O709        C725   1.273       .  A
O709       Zn715   2.012       .  S
C710        O726   1.272       .  A
C710        O723   1.275       .  A
C710       C1003   1.482       .  S
O711        C724   1.278   1_556  A
O711       Cd718   2.097       .  S
O712        C730   1.275       .  A
O712       Cd721   2.071       .  S
O713        C727   1.276   1_556  A
O713       Cd717   2.081       .  S
O714        C725   1.277   1_556  A
O714       Cd717   2.088       .  S
Zn715       O726   2.010       .  S
Zn715       O728   2.002       .  S
Zn715       O720   1.939       .  S
O716        C727   1.275       .  A
O716       Cd721   2.069       .  S
Cd717       O719   2.073       .  S
Cd717       O720   2.011   1_556  S
Cd718       O722   2.084       .  S
Cd718       O731   2.099       .  S
Cd718       O720   2.017   1_556  S
O719        C729   1.275       .  A
O720       Cd721   1.996       .  S
Cd721       O723   2.070       .  S
O722        C729   1.276       .  A
C724        O728   1.274       .  A
C724       C1027   1.495       .  S
C725       C1051   1.490       .  S
C727       C1015   1.488       .  S
C729        C991   1.474       .  S
C730        O731   1.279   1_554  A
C730       C1039   1.488       .  S
O732        C748   1.273       .  A
O732       Zn738   1.995       .  S
C733        O749   1.274       .  A
C733        O746   1.274       .  A
C733        C994   1.496       .  S
O734        C747   1.276       .  A
O734       Cd741   2.087       .  S
O735        C753   1.272       .  A
O735       Cd744   2.035       .  S
O736        C750   1.278       .  A
O736       Cd740   2.099       .  S
O737        C748   1.278       .  A
O737       Cd740   2.089       .  S
Zn738       O749   2.029       .  S
Zn738       O751   2.003       .  S
Zn738       O743   1.929       .  S
O739        C750   1.274       .  A
O739       Cd744   2.064       .  S
Cd740       O742   2.073       .  S
Cd740       O743   2.013       .  S
Cd741       O745   2.075       .  S
Cd741       O754   2.089       .  S
Cd741       O743   2.020       .  S
O742        C752   1.275       .  A
O743       Cd744   1.980       .  S
Cd744       O746   2.068       .  S
O745        C752   1.275       .  A
C747        O751   1.274       .  A
C747        C955   1.491       .  S
C748        C979   1.481       .  S
C750        C946   1.491       .  S
C752       C1006   1.477       .  S
C753        O754   1.277       .  A
C753        C967   1.479       .  S
O755        C771   1.273       .  A
O755       Zn761   2.013       .  S
C756        O772   1.273       .  A
C756        C895   1.484       .  S
O757        C770   1.277       .  A
O757       Cd764   2.088       .  S
O758        C776   1.274   1_556  A
O758       Cd767   2.067       .  S
O759        C773   1.278   1_554  A
O760        C771   1.278   1_554  A
O760       Cd763   2.095       .  S
Zn761       O772   2.013       .  S
Zn761       O774   2.003       .  S
Zn761       O766   1.937       .  S
O762        C773   1.275       .  A
O762       Cd767   2.063       .  S
Cd763       O766   2.013   1_554  S
Cd764       O766   2.012   1_554  S
O765        C775   1.276       .  A
Cd767       O769   2.067       .  S
O768        C775   1.276       .  A
C770        O774   1.274   1_554  A
C770        C919   1.485       .  S
C771       C1042   1.486   1_556  S
C773        C931   1.490       .  S
C775        C910   1.485       .  S
C776        O777   1.276       .  A
C776       C1054   1.477       .  S
O778        C794   1.274   1_655  A
O778       Zn784   2.019       .  S
C779        O795   1.274       .  A
C779        O792   1.275       .  A
C779        C982   1.479       .  S
O780        C793   1.276       .  A
O780       Cd787   2.083   1_655  S
O781        C799   1.275       .  A
O782        C796   1.273       .  A
O782       Cd786   2.055       .  S
O783       Cd786   2.058       .  S
Zn784       O795   2.010       .  S
Zn784       O797   2.012       .  S
Zn784       O789   1.935   1_655  S
O785        C796   1.277       .  A
Cd786       O788   2.036       .  S
Cd787       O789   2.019       .  S
O788        C798   1.272       .  A
O789       Cd790   2.009       .  S
Cd790       O792   2.075   1_455  S
O791        C798   1.276       .  A
C793        O797   1.275       .  A
C793        C883   1.485       .  S
C794        C898   1.481       .  S
C796        C874   1.489       .  S
C798        C970   1.478       .  S
C799        O800   1.276       .  A
C799        C907   1.488       .  S
O801        C817   1.273       .  A
O801       Zn807   2.000       .  S
C802        O818   1.273   1_565  A
C802       O1169   1.274       .  A
C802        C850   1.484       .  S
O803        C816   1.275       .  A
O803       Cd810   2.083   1_545  S
O804        C822   1.273       .  A
O804       Cd813   2.056       .  S
O805        C819   1.276       .  A
O805      Cd1163   2.080       .  S
O806        C817   1.276   1_554  A
O806       Cd809   2.088       .  S
Zn807       O818   2.009       .  S
Zn807       O820   2.015       .  S
Zn807       O812   1.930   1_545  S
O808        C819   1.274   1_556  A
O808       Cd813   2.060       .  S
Cd809      O1159   2.092   1_545  S
Cd809       O811   2.079       .  S
Cd809       O812   2.018   1_544  S
Cd810       O814   2.063       .  S
Cd810      O1177   2.089       .  S
Cd810       O812   2.004   1_554  S
O811       C1175   1.277   1_545  A
O812      Cd1167   1.988       .  S
Cd813       O815   2.056       .  S
Cd813      O1166   1.990   1_556  S
O814       C1175   1.274       .  A
O815       C1156   1.272       .  A
C816        O820   1.273   1_554  A
C816       C1030   1.475       .  S
C817        C934   1.488       .  S
C819       C1018   1.476       .  S
C821       O1165   1.275       .  A
C821       O1168   1.275       .  A
C821       C1213   1.486       .  S
C822        O823   1.277   1_556  A
C822        C922   1.484       .  S
O823      Cd1164   2.088       .  S
O824        C840   1.275       .  A
O824       Zn830   2.012       .  S
C825        O841   1.272       .  A
C825       O1192   1.273       .  A
C825       C1201   1.490       .  S
O826        C839   1.277       .  A
O826       Cd833   2.094       .  S
O827        C845   1.271       .  A
O827       Cd836   2.040       .  S
O828        C842   1.276       .  A
O828      Cd1186   2.092   1_545  S
O829        C840   1.279       .  A
O829       Cd832   2.103       .  S
Zn830       O841   2.014       .  S
Zn830       O843   2.012       .  S
Zn830       O835   1.938       .  S
O831        C842   1.272       .  A
O831       Cd836   2.046       .  S
Cd832      O1182   2.122       .  S
Cd832      O1188   2.077       .  S
Cd832       O835   2.021       .  S
Cd833      O1191   2.068       .  S
Cd833      O1200   2.099       .  S
Cd833       O835   2.019       .  S
O834        C844   1.274       .  A
O834      Cd1186   2.062       .  S
O835      Cd1190   1.979       .  S
Cd836       O838   2.057       .  S
Cd836      O1189   1.978       .  S
O837        C844   1.279   1_545  A
O837      Cd1187   2.086       .  S
O838       C1179   1.271       .  A
C839        O843   1.274       .  A
C839        C871   1.486       .  S
C840        C943   1.488       .  S
C842        C886   1.486       .  S
C844        C862   1.495       .  S
C845        O846   1.279       .  A
C845        C958   1.492       .  S
O846      Cd1187   2.105       .  S
C847       C1179   1.478       .  S
C847        C848   1.402       .  A
C847       C1206   1.412   1_545  A
C848        C849   1.398       .  A
C848        H853   1.085       .  S
C849        C850   1.415   1_545  A
C849        C856   1.445       .  S
C850       C1205   1.407       .  A
C851       C1204   1.407       .  A
C851        C852   1.399       .  A
C851        H854   1.084       .  S
C852       C1201   1.417       .  A
C852        C855   1.445       .  S
C855        N857   1.158       .  T
C856        N858   1.157       .  T
C859       C1175   1.496       .  S
C859        C860   1.407   1_565  A
C859       C1218   1.419       .  A
C860        C861   1.401       .  A
C860        H865   1.084       .  S
C861        C862   1.419   1_545  A
C861        C868   1.445       .  S
C862       C1217   1.406       .  A
C863       C1216   1.406       .  A
C863        C864   1.401       .  A
C863        H866   1.085       .  S
C864       C1213   1.415       .  A
C864        C867   1.445       .  S
C867        N869   1.158       .  T
C868        N870   1.158       .  T
C871        C872   1.406       .  A
C871        C876   1.413       .  A
C872        C873   1.407       .  A
C872        H877   1.084       .  S
C873        C874   1.415       .  A
C873        C880   1.444       .  S
C874        C875   1.405       .  A
C875        C876   1.398       .  A
C875        H878   1.085       .  S
C876        C879   1.445       .  S
C879        N881   1.157       .  T
C880        N882   1.157       .  T
C883        C884   1.403       .  A
C883        C888   1.416       .  A
C884        C885   1.396       .  A
C884        H889   1.085       .  S
C885        C886   1.415       .  A
C885        C892   1.445       .  S
C886        C887   1.406       .  A
C887        C888   1.406       .  A
C887        H890   1.085       .  S
C888        C891   1.444       .  S
C891        N893   1.157       .  T
C892        N894   1.157       .  T
C895        C896   1.406       .  A
C896        C897   1.400       .  A
C896        H901   1.085       .  S
C897        C904   1.445       .  S
C898        C899   1.404   1_455  A
C899        C900   1.399       .  A
C899        H902   1.085       .  S
C900        C903   1.444       .  S
C903        N905   1.157       .  T
C904        N906   1.157       .  T
C907        C912   1.416       .  A
C908        C909   1.402       .  A
C908        H913   1.085       .  S
C909        C910   1.414       .  A
C909        C916   1.445       .  S
C911        C912   1.401       .  A
C911        H914   1.085       .  S
C912        C915   1.444       .  S
C915        N917   1.157       .  T
C916        N918   1.158       .  T
C919        C920   1.405   1_554  A
C919        C924   1.414       .  A
C920        C921   1.398       .  A
C920        H925   1.085       .  S
C921        C922   1.414       .  A
C921        C928   1.445       .  S
C922        C923   1.405   1_556  A
C923        C924   1.405       .  A
C923        H926   1.085       .  S
C924        C927   1.443       .  S
C927        N929   1.157       .  T
C928        N930   1.157       .  T
C931        C932   1.408   1_556  A
C931        C936   1.415       .  A
C932        C933   1.406       .  A
C932        H937   1.084       .  S
C933        C934   1.415   1_554  A
C933        C940   1.444       .  S
C934        C935   1.405       .  A
C935        C936   1.397       .  A
C935        H938   1.085       .  S
C936        C939   1.445       .  S
C939        N941   1.157       .  T
C940        N942   1.157       .  T
C943        C944   1.404       .  A
C943        C948   1.413       .  A
C944        C945   1.401       .  A
C944        H949   1.085       .  S
C945        C946   1.414       .  A
C945        C952   1.445       .  S
C946        C947   1.408       .  A
C947        C948   1.408       .  A
C947        H950   1.084       .  S
C948        C951   1.444       .  S
C951        N953   1.157       .  T
C952        N954   1.157       .  T
C955        C956   1.404       .  A
C955        C960   1.416       .  A
C956        C957   1.397       .  A
C956        H961   1.085       .  S
C957        C958   1.418       .  A
C957        C964   1.447       .  S
C958        C959   1.407       .  A
C959        C960   1.407       .  A
C959        H962   1.084       .  S
C960        C963   1.443       .  S
C963        N965   1.157       .  T
C964        N966   1.158       .  T
C967        C968   1.407       .  A
C967        C972   1.414       .  A
C968        C969   1.408       .  A
C968        H973   1.084       .  S
C969        C970   1.412       .  A
C969        C976   1.443       .  S
C970        C971   1.401       .  A
C971        C972   1.389       .  A
C971        H974   1.086       .  S
C972        C975   1.447       .  S
C975        N977   1.158       .  T
C976        N978   1.157       .  T
C979        C980   1.405       .  A
C979        C984   1.414       .  A
C980        C981   1.403       .  A
C980        H985   1.084       .  S
C981        C982   1.413       .  A
C981        C988   1.445       .  S
C982        C983   1.403       .  A
C983        C984   1.399       .  A
C983        H986   1.085       .  S
C984        C987   1.445       .  S
C987        N989   1.157       .  T
C988        N990   1.157       .  T
C991        C992   1.400       .  A
C991        C996   1.407       .  A
C992        C993   1.405       .  A
C992        H997   1.085       .  S
C993        C994   1.421       .  A
C993       C1000   1.444       .  S
C994        C995   1.410       .  A
C995        C996   1.401       .  A
C995        H998   1.085       .  S
C996        C999   1.445       .  S
C999       N1001   1.157       .  T
C1000      N1002   1.158       .  T
C1003      C1004   1.404       .  A
C1003      C1008   1.416       .  A
C1004      C1005   1.399       .  A
C1004      H1009   1.085       .  S
C1005      C1006   1.411       .  A
C1005      C1012   1.444       .  S
C1006      C1007   1.403       .  A
C1007      C1008   1.402       .  A
C1007      H1010   1.085       .  S
C1008      C1011   1.445       .  S
C1011      N1013   1.158       .  T
C1012      N1014   1.157       .  T
C1015      C1016   1.407       .  A
C1015      C1020   1.417   1_554  A
C1016      C1017   1.400       .  A
C1016      H1021   1.085       .  S
C1017      C1018   1.410       .  A
C1017      C1024   1.445       .  S
C1018      C1019   1.403   1_554  A
C1019      C1020   1.403       .  A
C1019      H1022   1.085       .  S
C1020      C1023   1.444       .  S
C1023      N1025   1.157       .  T
C1024      N1026   1.157       .  T
C1027      C1028   1.410       .  A
C1027      C1032   1.418   1_554  A
C1028      C1029   1.399       .  A
C1028      H1033   1.085       .  S
C1029      C1030   1.408       .  A
C1029      C1036   1.445       .  S
C1030      C1031   1.402   1_554  A
C1031      C1032   1.406       .  A
C1031      H1034   1.085       .  S
C1032      C1035   1.443       .  S
C1035      N1037   1.157       .  T
C1036      N1038   1.157       .  T
C1039      C1040   1.406       .  A
C1039      C1044   1.414   1_554  A
C1040      C1041   1.404       .  A
C1040      H1045   1.085       .  S
C1041      C1042   1.412       .  A
C1041      C1048   1.444       .  S
C1042      C1043   1.406   1_554  A
C1043      C1044   1.404       .  A
C1043      H1046   1.085       .  S
C1044      C1047   1.444       .  S
C1047      N1049   1.157       .  T
C1048      N1050   1.157       .  T
C1051      C1052   1.407   1_554  A
C1051      C1056   1.418       .  A
C1052      C1053   1.403       .  A
C1052      H1057   1.085       .  S
C1053      C1054   1.410   1_556  A
C1053      C1060   1.443       .  S
C1054      C1055   1.401       .  A
C1055      C1056   1.401       .  A
C1055      H1058   1.085       .  S
C1056      C1059   1.445       .  S
C1059      N1061   1.157       .  T
C1060      N1062   1.157       .  T
O1063      C1079   1.273       .  A
O1063     Zn1069   2.003       .  S
C1064      O1080   1.271       .  A
C1064      O1077   1.270       .  A
C1064      C1357   1.469       .  S
O1065      C1078   1.277       .  A
O1065     Cd1072   2.089       .  S
O1066      C1084   1.273       .  A
O1066     Cd1075   2.047       .  S
O1067      C1081   1.278   1_556  A
O1067     Cd1071   2.106       .  S
O1068      C1079   1.277   1_556  A
O1068     Cd1071   2.088       .  S
Zn1069     O1080   2.017       .  S
Zn1069     O1082   1.987       .  S
Zn1069     O1074   1.933       .  S
O1070      C1081   1.272       .  A
O1070     Cd1075   2.035       .  S
Cd1071     O1073   2.073       .  S
Cd1071     O1074   2.016   1_556  S
Cd1072     O1076   2.089       .  S
Cd1072     O1085   2.107       .  S
Cd1072     O1074   2.020   1_556  S
O1073      C1083   1.277       .  A
O1074     Cd1075   1.978       .  S
Cd1075     O1077   2.056       .  S
O1076      C1083   1.278       .  A
C1078      O1082   1.272   1_556  A
C1078      C1381   1.482   1_556  S
C1079      C1405   1.482       .  S
C1081      C1369   1.492       .  S
C1083      C1345   1.486       .  S
C1084      O1085   1.279   1_554  A
C1084      C1393   1.496       .  S
O1086      C1102   1.275       .  A
O1086     Zn1092   2.018       .  S
C1087      O1103   1.274       .  A
C1087      O1100   1.273       .  A
C1087      C1348   1.480       .  S
O1088      C1101   1.278       .  A
O1088     Cd1095   2.098       .  S
O1089      C1107   1.273       .  A
O1089     Cd1098   2.049       .  S
O1090      C1104   1.273       .  A
O1090     Cd1094   2.070       .  S
O1091      C1102   1.274       .  A
O1091     Cd1094   2.067       .  S
Zn1092     O1103   2.027       .  S
Zn1092     O1105   1.996       .  S
Zn1092     O1097   1.931       .  S
O1093      C1104   1.272       .  A
O1093     Cd1098   2.051       .  S
Cd1094     O1096   2.055       .  S
Cd1094     O1097   2.006       .  S
Cd1095     O1099   2.083       .  S
Cd1095     O1108   2.102       .  S
Cd1095     O1097   2.022       .  S
O1096      C1106   1.273       .  A
O1097     Cd1098   1.982       .  S
Cd1098     O1100   2.066       .  S
O1099      C1106   1.278       .  A
C1101      O1105   1.274       .  A
C1101      C1309   1.488       .  S
C1102      C1333   1.483       .  S
C1104      C1300   1.480       .  S
C1106      C1360   1.487       .  S
C1107      O1108   1.278       .  A
C1107      C1321   1.482       .  S
O1109      C1125   1.273   1_556  A
O1109     Zn1115   2.009       .  S
C1110      O1126   1.273       .  A
C1110      C1249   1.489       .  S
O1111      C1124   1.276   1_554  A
O1111     Cd1118   2.088       .  S
O1112      C1130   1.273       .  A
O1112     Cd1121   2.061       .  S
O1113      C1127   1.278       .  A
O1114      C1125   1.277       .  A
O1114     Cd1117   2.089       .  S
Zn1115     O1126   2.011       .  S
Zn1115     O1128   2.008       .  S
Zn1115     O1120   1.939   1_556  S
O1116      C1127   1.274   1_556  A
O1116     Cd1121   2.056       .  S
Cd1117     O1120   2.015       .  S
Cd1118     O1120   2.012       .  S
O1119      C1129   1.277       .  A
Cd1121     O1123   2.065       .  S
O1122      C1129   1.274       .  A
C1124      O1128   1.274       .  A
C1124      C1273   1.487       .  S
C1125      C1396   1.475       .  S
C1127      C1285   1.490       .  S
C1129      C1264   1.490       .  S
C1130      O1131   1.276   1_556  A
C1130      C1408   1.478   1_556  S
O1132      C1148   1.273   1_655  A
O1132     Zn1138   2.004       .  S
C1133      O1149   1.273       .  A
C1133      O1146   1.277       .  A
C1133      C1336   1.484       .  S
O1134      C1147   1.278       .  A
O1134     Cd1141   2.111   1_655  S
O1135      C1153   1.276       .  A
O1136      C1150   1.274       .  A
O1136     Cd1140   2.059       .  S
O1137     Cd1140   2.073       .  S
Zn1138     O1149   1.995       .  S
Zn1138     O1151   2.003       .  S
Zn1138     O1143   1.923   1_655  S
O1139      C1150   1.277       .  A
Cd1140     O1142   2.048       .  S
Cd1141     O1143   2.018       .  S
O1142      C1152   1.273       .  A
O1143     Cd1144   2.017       .  S
Cd1144     O1146   2.085   1_455  S
O1145      C1152   1.278       .  A
C1147      O1151   1.274       .  A
C1147      C1237   1.503       .  S
C1148      C1252   1.489       .  S
C1150      C1228   1.493       .  S
C1152      C1324   1.482       .  S
C1153      O1154   1.276       .  A
C1153      C1261   1.489       .  S
O1155      C1171   1.275   1_556  A
O1155     Zn1161   2.011       .  S
C1156      O1172   1.272       .  A
C1156      C1204   1.490       .  S
O1157      C1170   1.275       .  A
O1157     Cd1164   2.077       .  S
O1158      C1176   1.275       .  A
O1158     Cd1167   2.065       .  S
O1159      C1173   1.276       .  A
O1160      C1171   1.276       .  A
O1160     Cd1163   2.087       .  S
Zn1161     O1172   2.012       .  S
Zn1161     O1174   2.003       .  S
Zn1161     O1166   1.933   1_556  S
O1162      C1173   1.272   1_556  A
O1162     Cd1167   2.050       .  S
Cd1163     O1165   2.068       .  S
Cd1163     O1166   2.008       .  S
Cd1164     O1168   2.071       .  S
Cd1164     O1166   2.010       .  S
Cd1167     O1169   2.071       .  S
C1170      O1174   1.273   1_554  A
C1170      C1384   1.472       .  S
C1171      C1288   1.488       .  S
C1173      C1372   1.472       .  S
C1176      O1177   1.277   1_556  A
C1176      C1276   1.490       .  S
O1178      C1194   1.272       .  A
O1178     Zn1184   1.989       .  S
C1179      O1195   1.272   1_545  A
O1180      C1193   1.278       .  A
O1180     Cd1187   2.101   1_565  S
O1181      C1199   1.271       .  A
O1181     Cd1190   2.042       .  S
O1182      C1196   1.280       .  A
O1183      C1194   1.275       .  A
O1183     Cd1186   2.079       .  S
Zn1184     O1195   2.014       .  S
Zn1184     O1197   2.001       .  S
Zn1184     O1189   1.929   1_565  S
O1185      C1196   1.271       .  A
O1185     Cd1190   2.049       .  S
Cd1186     O1189   2.013   1_565  S
Cd1187     O1189   2.020       .  S
O1188      C1198   1.278       .  A
Cd1190     O1192   2.055       .  S
O1191      C1198   1.277       .  A
C1193      O1197   1.273       .  A
C1193      C1225   1.490       .  S
C1194      C1297   1.478       .  S
C1196      C1240   1.505       .  S
C1198      C1216   1.486       .  S
C1199      O1200   1.278       .  A
C1199      C1312   1.490       .  S
C1201      C1202   1.407       .  A
C1202      C1203   1.399       .  A
C1202      H1207   1.084       .  S
C1203      C1204   1.416       .  A
C1203      C1210   1.445       .  S
C1205      C1206   1.402       .  A
C1205      H1208   1.084       .  S
C1206      C1209   1.445       .  S
C1209      N1211   1.157       .  T
C1210      N1212   1.157       .  T
C1213      C1214   1.405       .  A
C1214      C1215   1.400       .  A
C1214      H1219   1.085       .  S
C1215      C1216   1.414       .  A
C1215      C1222   1.445       .  S
C1217      C1218   1.401       .  A
C1217      H1220   1.085       .  S
C1218      C1221   1.445       .  S
C1221      N1223   1.157       .  T
C1222      N1224   1.157       .  T
C1225      C1226   1.407       .  A
C1225      C1230   1.415       .  A
C1226      C1227   1.408       .  A
C1226      H1231   1.084       .  S
C1227      C1228   1.418       .  A
C1227      C1234   1.444       .  S
C1228      C1229   1.405       .  A
C1229      C1230   1.397       .  A
C1229      H1232   1.085       .  S
C1230      C1233   1.446       .  S
C1233      N1235   1.157       .  T
C1234      N1236   1.157       .  T
C1237      C1238   1.406       .  A
C1237      C1242   1.418       .  A
C1238      C1239   1.398       .  A
C1238      H1243   1.085       .  S
C1239      C1240   1.421       .  A
C1239      C1246   1.446       .  S
C1240      C1241   1.411       .  A
C1241      C1242   1.413       .  A
C1241      H1244   1.084       .  S
C1242      C1245   1.443       .  S
C1245      N1247   1.157       .  T
C1246      N1248   1.158       .  T
C1249      C1250   1.407       .  A
C1250      C1251   1.402       .  A
C1250      H1255   1.085       .  S
C1251      C1258   1.444       .  S
C1252      C1253   1.406   1_455  A
C1253      C1254   1.398       .  A
C1253      H1256   1.085       .  S
C1254      C1257   1.444       .  S
C1257      N1259   1.157       .  T
C1258      N1260   1.157       .  T
C1261      C1266   1.416       .  A
C1262      C1263   1.402       .  A
C1262      H1267   1.085       .  S
C1263      C1264   1.418       .  A
C1263      C1270   1.445       .  S
C1265      C1266   1.400       .  A
C1265      H1268   1.085       .  S
C1266      C1269   1.445       .  S
C1269      N1271   1.157       .  T
C1270      N1272   1.158       .  T
C1273      C1274   1.404       .  A
C1273      C1278   1.414   1_556  A
C1274      C1275   1.399       .  A
C1274      H1279   1.085       .  S
C1275      C1276   1.415       .  A
C1275      C1282   1.445       .  S
C1276      C1277   1.408   1_556  A
C1277      C1278   1.405       .  A
C1277      H1280   1.085       .  S
C1278      C1281   1.444       .  S
C1281      N1283   1.157       .  T
C1282      N1284   1.157       .  T
C1285      C1286   1.408       .  A
C1285      C1290   1.415   1_554  A
C1286      C1287   1.408       .  A
C1286      H1291   1.084       .  S
C1287      C1288   1.416       .  A
C1287      C1294   1.444       .  S
C1288      C1289   1.403   1_554  A
C1289      C1290   1.397       .  A
C1289      H1292   1.085       .  S
C1290      C1293   1.445       .  S
C1293      N1295   1.157       .  T
C1294      N1296   1.158       .  T
C1297      C1298   1.404       .  A
C1297      C1302   1.412       .  A
C1298      C1299   1.395       .  A
C1298      H1303   1.085       .  S
C1299      C1300   1.412       .  A
C1299      C1306   1.445       .  S
C1300      C1301   1.407       .  A
C1301      C1302   1.402       .  A
C1301      H1304   1.084       .  S
C1302      C1305   1.444       .  S
C1305      N1307   1.157       .  T
C1306      N1308   1.157       .  T
C1309      C1310   1.404       .  A
C1309      C1314   1.415       .  A
C1310      C1311   1.395       .  A
C1310      H1315   1.085       .  S
C1311      C1312   1.417       .  A
C1311      C1318   1.446       .  S
C1312      C1313   1.408       .  A
C1313      C1314   1.408       .  A
C1313      H1316   1.084       .  S
C1314      C1317   1.443       .  S
C1317      N1319   1.157       .  T
C1318      N1320   1.158       .  T
C1321      C1322   1.406       .  A
C1321      C1326   1.413       .  A
C1322      C1323   1.410       .  A
C1322      H1327   1.084       .  S
C1323      C1324   1.413       .  A
C1323      C1330   1.443       .  S
C1324      C1325   1.403       .  A
C1325      C1326   1.394       .  A
C1325      H1328   1.085       .  S
C1326      C1329   1.447       .  S
C1329      N1331   1.158       .  T
C1330      N1332   1.157       .  T
C1333      C1334   1.406       .  A
C1333      C1338   1.412       .  A
C1334      C1335   1.403       .  A
C1334      H1339   1.084       .  S
C1335      C1336   1.414       .  A
C1335      C1342   1.444       .  S
C1336      C1337   1.406       .  A
C1337      C1338   1.398       .  A
C1337      H1340   1.085       .  S
C1338      C1341   1.445       .  S
C1341      N1343   1.157       .  T
C1342      N1344   1.157       .  T
C1345      C1346   1.407       .  A
C1345      C1350   1.415       .  A
C1346      C1347   1.405       .  A
C1346      H1351   1.085       .  S
C1347      C1348   1.412       .  A
C1347      C1354   1.445       .  S
C1348      C1349   1.402       .  A
C1349      C1350   1.400       .  A
C1349      H1352   1.085       .  S
C1350      C1353   1.444       .  S
C1353      N1355   1.157       .  T
C1354      N1356   1.158       .  T
C1357      C1358   1.398       .  A
C1357      C1362   1.408       .  A
C1358      C1359   1.399       .  A
C1358      H1363   1.086       .  S
C1359      C1360   1.420       .  A
C1359      C1366   1.445       .  S
C1360      C1361   1.407       .  A
C1361      C1362   1.400       .  A
C1361      H1364   1.085       .  S
C1362      C1365   1.444       .  S
C1365      N1367   1.157       .  T
C1366      N1368   1.158       .  T
C1369      C1370   1.408       .  A
C1369      C1374   1.418   1_554  A
C1370      C1371   1.391       .  A
C1370      H1375   1.085       .  S
C1371      C1372   1.406       .  A
C1371      C1378   1.447       .  S
C1372      C1373   1.404   1_554  A
C1373      C1374   1.410       .  A
C1373      H1376   1.085       .  S
C1374      C1377   1.443       .  S
C1377      N1379   1.157       .  T
C1378      N1380   1.157       .  T
C1381      C1382   1.407       .  A
C1381      C1386   1.413   1_554  A
C1382      C1383   1.398       .  A
C1382      H1387   1.085       .  S
C1383      C1384   1.408       .  A
C1383      C1390   1.445       .  S
C1384      C1385   1.403   1_554  A
C1385      C1386   1.402       .  A
C1385      H1388   1.085       .  S
C1386      C1389   1.444       .  S
C1389      N1391   1.157       .  T
C1390      N1392   1.157       .  T
C1393      C1394   1.411       .  A
C1393      C1398   1.418   1_554  A
C1394      C1395   1.398       .  A
C1394      H1399   1.084       .  S
C1395      C1396   1.406       .  A
C1395      C1402   1.445       .  S
C1396      C1397   1.403   1_554  A
C1397      C1398   1.407       .  A
C1397      H1400   1.085       .  S
C1398      C1401   1.443       .  S
C1401      N1403   1.157       .  T
C1402      N1404   1.157       .  T
C1405      C1406   1.404   1_554  A
C1405      C1410   1.415       .  A
C1406      C1407   1.403       .  A
C1406      H1411   1.085       .  S
C1407      C1408   1.412   1_556  A
C1407      C1414   1.444       .  S
C1408      C1409   1.402       .  A
C1409      C1410   1.401       .  A
C1409      H1412   1.085       .  S
C1410      C1413   1.445       .  S
C1413      N1415   1.157       .  T
C1414      N1416   1.157       .  T
