geometry optimzed in LAMMPS
_audit_creation_date              2020-11-30 
_audit_creation_method            'lammps2cif' 
_symmetry_space_group_name_H-M    'P1' 
_symmetry_Int_Tables_number       1 
_symmetry_cell_setting            triclinic 
loop_ 
_symmetry_equiv_pos_as_xyz 
  x,y,z 
_cell_length_a                    33.9275616 
_cell_length_b                    33.94147929775712 
_cell_length_c                    83.44735610836962 
_cell_angle_alpha                 89.89603361344862 
_cell_angle_beta                  90.00902371551142 
_cell_angle_gamma                 119.98413326092563 
loop_ 
_atom_site_label 
_atom_site_type_symbol 
_atom_site_fract_x 
_atom_site_fract_y 
_atom_site_fract_z 
_atom_site_charge 
C1          C  0.64554005  0.08592510  0.71820118     0.03600
C2          C  0.60654602  0.04623753  0.71333649    -0.12500
C3          C  0.60477339  0.02529881  0.69873993     0.01100
C4          C  0.64290319  0.04512216  0.68856841    -0.11000
C5          C  0.68357289  0.08479955  0.69320811     0.03600
C6          C  0.68412207  0.10485739  0.70821956    -0.10500
H7          H  0.57706153  0.03113535  0.72114143     0.09200
H8          H  0.64022214  0.02966199  0.67702651     0.06700
H9          H  0.71473143  0.13406435  0.71257922     0.06600
C10         C  0.77179771  0.09493201  0.66195274     0.03600
C11         C  0.80623590  0.13957623  0.66470662    -0.12500
C12         C  0.80065071  0.16782757  0.67552632     0.01100
C13         C  0.76037166  0.15023660  0.68444994    -0.11000
C14         C  0.72552152  0.10426719  0.68275467     0.03600
C15         C  0.73172842  0.07707515  0.67117609    -0.10500
H16         H  0.83785506  0.15262772  0.65816765     0.09200
H17         H  0.75635109  0.17303503  0.69242582     0.06700
H18         H  0.70645362  0.04174640  0.66956755     0.06600
C19         C  0.49796199  0.77530709  0.82260194     0.03600
C20         C  0.52078813  0.75801599  0.83161626    -0.12500
C21         C  0.53911810  0.77634795  0.84680872     0.01100
C22         C  0.53590251  0.81412568  0.85237568    -0.11000
C23         C  0.51428503  0.83236169  0.84315001     0.03600
C24         C  0.49567515  0.81270969  0.82837165    -0.10500
H25         H  0.52413720  0.73039428  0.82673858     0.09200
H26         H  0.54844894  0.82856699  0.86408237     0.06700
H27         H  0.47931014  0.82693084  0.82116486     0.06600
C28         C  0.60778550  0.75991176  0.87961336     0.03600
C29         C  0.59164258  0.78058861  0.86902347    -0.12500
C30         C  0.55943092  0.75483329  0.85710054     0.01100
C31         C  0.54569625  0.70803517  0.85550694    -0.11000
C32         C  0.56391521  0.68777067  0.86550295     0.03600
C33         C  0.59399546  0.71393553  0.87767372    -0.10500
H34         H  0.60456675  0.81673091  0.87011103     0.09200
H35         H  0.52054246  0.68707878  0.84673535     0.06700
H36         H  0.60698061  0.69828235  0.88584220     0.06600
C37         C  0.82850697  0.43506724  0.49127556     0.03600
C38         C  0.84816624  0.41566469  0.50107613    -0.12500
C39         C  0.86649383  0.43440854  0.51639117     0.01100
C40         C  0.86503468  0.47362658  0.52137137    -0.11000
C41         C  0.84522094  0.49280683  0.51166958     0.03600
C42         C  0.82704476  0.47308863  0.49687761    -0.10500
H43         H  0.84974078  0.38668862  0.49652567     0.09200
H44         H  0.87746294  0.48852455  0.53302662     0.06700
H45         H  0.81138924  0.48779900  0.48960481     0.06600
C46         C  0.93462360  0.41762993  0.55001371     0.03600
C47         C  0.91904093  0.37103204  0.54844024    -0.12500
C48         C  0.88816267  0.34503163  0.53644860     0.01100
C49         C  0.87166456  0.36585482  0.52596479    -0.11000
C50         C  0.88578659  0.41269187  0.52733575     0.03600
C51         C  0.91784442  0.43823293  0.53948449    -0.10500
H52         H  0.93149638  0.35474949  0.55651010     0.09200
H53         H  0.84677541  0.34478607  0.51711248     0.06700
H54         H  0.93099827  0.47440819  0.54060945     0.06600
C55         C  0.43448583  0.41837285  0.99745104     0.03600
C56         C  0.39357934  0.40125414  0.00608155    -0.12500
C57         C  0.38707910  0.42906794  0.01718953     0.01100
C58         C  0.42194579  0.47520855  0.01874061    -0.11000
C59         C  0.46300892  0.49218271  0.01024611     0.03600
C60         C  0.46935438  0.46273217  0.00030425    -0.10500
H61         H  0.36776043  0.36608530  0.00439803     0.09200
H62         H  0.41714249  0.49837732  0.02627121     0.06700
H63         H  0.50150346  0.47493844  0.99419853     0.06600
C64         C  0.30792961  0.41063247  0.05253615     0.03600
C65         C  0.26739613  0.37326188  0.04722281    -0.12500
C66         C  0.26445414  0.35347191  0.03224795     0.01100
C67         C  0.30321566  0.37202782  0.02233588    -0.11000
C68         C  0.34483693  0.41003986  0.02736702     0.03600
C69         C  0.34635617  0.42897376  0.04261212    -0.10500
H70         H  0.23791371  0.35926255  0.05495983     0.09200
H71         H  0.30036474  0.35700128  0.01067339     0.06700
H72         H  0.37771022  0.45697170  0.04716462     0.06600
C73         C  0.97228420  0.75436469  0.38153163     0.03600
C74         C  0.01317958  0.77062213  0.37294263    -0.12500
C75         C  0.01455484  0.75024577  0.35827738     0.01100
C76         C  0.97380306  0.71200699  0.35279165    -0.11000
C77         C  0.93344688  0.69431502  0.36178234     0.03600
C78         C  0.93300911  0.71641398  0.37579826    -0.10500
H79         H  0.04387049  0.79830350  0.37796437     0.09200
H80         H  0.97284706  0.69599827  0.34151238     0.06700
H81         H  0.90170763  0.70303136  0.38260768     0.06600
C82         C  0.10560907  0.75776187  0.32903342     0.03600
C83         C  0.13997627  0.80266856  0.33146654    -0.12500
C84         C  0.13405669  0.83170932  0.34179546     0.01100
C85         C  0.09328954  0.81452366  0.35050318    -0.11000
C86         C  0.05826746  0.76850165  0.34889476     0.03600
C87         C  0.06522317  0.74044976  0.33800976    -0.10500
H88         H  0.17160393  0.81536814  0.32495840     0.09200
H89         H  0.08871718  0.83773042  0.35808302     0.06700
H90         H  0.03988697  0.70502731  0.33660157     0.06600
C91         C  0.14490354  0.09219059  0.16054709     0.03600
C92         C  0.16126375  0.07120117  0.17112190    -0.12500
C93         C  0.18230415  0.09195239  0.18593578     0.01100
C94         C  0.18569366  0.13422191  0.18979122    -0.11000
C95         C  0.17160265  0.15636012  0.17893421     0.03600
C96         C  0.15118967  0.13487468  0.16453125    -0.10500
H97         H  0.15872787  0.03963806  0.16738013     0.09200
H98         H  0.19894870  0.15016355  0.20121118     0.06700
H99         H  0.13979095  0.15168773  0.15623863     0.06600
C100        C  0.25236340  0.07656973  0.21940606     0.03600
C101        C  0.23437856  0.09656941  0.20907046    -0.12500
C102        C  0.20168808  0.07052376  0.19708725     0.01100
C103        C  0.18842012  0.02385686  0.19570433    -0.11000
C104        C  0.20752865  0.00414621  0.20551039     0.03600
C105        C  0.23916945  0.03075779  0.21722743    -0.10500
H106        H  0.24698496  0.13253971  0.21027002     0.09200
H107        H  0.16268740  0.00199367  0.18724800     0.06700
H108        H  0.25418836  0.01565880  0.22469383     0.06600
C109        C  0.03009414  0.68772054  0.82945682     0.03600
C110        C  0.04827643  0.72857250  0.83809914    -0.12500
C111        C  0.03011584  0.73020174  0.85325564     0.01100
C112        C  0.99280764  0.68965744  0.85930930    -0.11000
C113        C  0.97434091  0.64902846  0.85062954     0.03600
C114        C  0.99358157  0.64841920  0.83594100    -0.10500
H115        H  0.07560658  0.75890269  0.83268349     0.09200
H116        H  0.97829989  0.68877466  0.87091845     0.06700
H117        H  0.97942488  0.61684067  0.82939744     0.06600
C118        C  0.04105198  0.82074158  0.88324378     0.03600
C119        C  0.02284253  0.78044993  0.87429788    -0.12500
C120        C  0.04952766  0.77374926  0.86265613     0.01100
C121        C  0.09490658  0.80920280  0.86007550    -0.11000
C122        C  0.11284779  0.84994993  0.86872619     0.03600
C123        C  0.08609952  0.85462139  0.88039885    -0.10500
H124        H  0.98759507  0.75520244  0.87627231     0.09200
H125        H  0.11689529  0.80511728  0.85171530     0.06700
H126        H  0.10112514  0.88543331  0.88739458     0.06600
C127        C  0.69858944  0.65056607  0.66134970     0.03600
C128        C  0.65225739  0.63626109  0.66267209    -0.12500
C129        C  0.62418924  0.60265765  0.67365104     0.01100
C130        C  0.64283946  0.58195146  0.68324928    -0.11000
C131        C  0.68947315  0.59481549  0.68202746     0.03600
C132        C  0.71707201  0.63003988  0.67107696    -0.10500
H133        H  0.63799949  0.65192082  0.65514718     0.09200
H134        H  0.62034846  0.55496587  0.69127017     0.06700
H135        H  0.75319714  0.64255690  0.67019999     0.06600
C136        C  0.70588654  0.52459430  0.71498180     0.03600
C137        C  0.74323522  0.52285992  0.70873438    -0.12500
C138        C  0.76621328  0.54728455  0.69509060     0.01100
C139        C  0.74840729  0.57032748  0.68639980    -0.11000
C140        C  0.70893354  0.57089317  0.69173977     0.03600
C141        C  0.68851286  0.54833878  0.70638536    -0.10500
H142        H  0.75569799  0.50319142  0.71486858     0.09200
H143        H  0.76495398  0.58669319  0.67532606     0.06700
H144        H  0.66009230  0.55012141  0.71142474     0.06600
C145        C  0.37657570  0.35338195  0.49986744     0.03600
C146        C  0.33069839  0.32062141  0.50160369    -0.12500
C147        C  0.30284954  0.32546969  0.51282854     0.01100
C148        C  0.32183993  0.36384560  0.52282453    -0.11000
C149        C  0.36860137  0.39751679  0.52164916     0.03600
C150        C  0.39548331  0.39168178  0.50988237    -0.10500
H151        H  0.31640879  0.29101523  0.49395154     0.09200
H152        H  0.29951445  0.36761024  0.53113196     0.06700
H153        H  0.43139400  0.41585464  0.50868852     0.06600
C154        C  0.38828432  0.47424788  0.55805648     0.03600
C155        C  0.36919045  0.43647480  0.54777992    -0.12500
C156        C  0.38919790  0.43819884  0.53265984     0.01100
C157        C  0.42901705  0.47926172  0.52820193    -0.11000
C158        C  0.44890310  0.51675235  0.53864043     0.03600
C159        C  0.42854066  0.51317083  0.55353800    -0.10500
H160        H  0.33941629  0.40580503  0.55183291     0.09200
H161        H  0.44430291  0.48287460  0.51653548     0.06700
H162        H  0.44390943  0.54139437  0.56178434     0.06600
C163        C  0.36593901  0.98352676  0.99533323     0.03600
C164        C  0.32035988  0.97103268  0.99761663    -0.12500
C165        C  0.29362044  0.93925188  0.00926060     0.01100
C166        C  0.31272293  0.91857104  0.01860915    -0.11000
C167        C  0.35905711  0.93096561  0.01682271     0.03600
C168        C  0.38547210  0.96434935  0.00519304    -0.10500
H169        H  0.30536588  0.98633540  0.99020331     0.09200
H170        H  0.29093513  0.89217610  0.02692239     0.06700
H171        H  0.42134419  0.97621609  0.00387068     0.06600
C172        C  0.37924741  0.86692637  0.05092228     0.03600
C173        C  0.36053222  0.88846528  0.04184006    -0.12500
C174        C  0.37955045  0.90876889  0.02680125     0.01100
C175        C  0.41813386  0.90703133  0.02123914    -0.11000
C176        C  0.43698033  0.88577918  0.03028753     0.03600
C177        C  0.41730151  0.86604684  0.04498019    -0.10500
H178        H  0.33189471  0.89001030  0.04678147     0.09200
H179        H  0.43295567  0.92058293  0.00964572     0.06700
H180        H  0.43186053  0.84957478  0.05187078     0.06600
C181        C  0.03438617  0.19209686  0.38254713     0.03600
C182        C  0.01744036  0.21419990  0.37292509    -0.12500
C183        C  0.04562879  0.24715363  0.36142504     0.01100
C184        C  0.09154572  0.25736504  0.36004994    -0.11000
C185        C  0.10839175  0.23466674  0.36948536     0.03600
C186        C  0.07919894  0.20188034  0.38047359    -0.10500
H187        H  0.98197244  0.20428112  0.37416971     0.09200
H188        H  0.11478261  0.28350200  0.35191746     0.16900
H189        H  0.09132706  0.18352927  0.38762927     0.06600
C190        C  0.02969963  0.30973867  0.32582625     0.03600
C191        C  0.04728751  0.28884129  0.33578477    -0.12500
C192        C  0.02715419  0.27035812  0.35087461     0.01100
C193        C  0.98868595  0.27363390  0.35563412    -0.11000
C194        C  0.97064471  0.29418036  0.34567060     0.03600
C195        C  0.99173541  0.31221644  0.33092241    -0.10500
H196        H  0.07564701  0.28586633  0.33138051     0.09200
H197        H  0.97286747  0.26107052  0.36717692     0.06700
H198        H  0.97830726  0.32811307  0.32313553     0.06600
C199        C  0.70948989  0.14957638  0.21938217     0.03600
C200        C  0.75010991  0.18739829  0.21436655    -0.12500
C201        C  0.77322630  0.18625882  0.20072498     0.01100
C202        C  0.75462537  0.14642738  0.19153104    -0.11000
C203        C  0.71385239  0.10678478  0.19617076     0.03600
C204        C  0.69197400  0.10897247  0.21048494    -0.10500
H205        H  0.76421674  0.21853864  0.22124829     0.09200
H206        H  0.77170308  0.14746977  0.18054528     0.06700
H207        H  0.66168847  0.07963059  0.21491706     0.06600
C208        C  0.69985385  0.02143307  0.16296661     0.03600
C209        C  0.71978577  0.05893244  0.17341889    -0.12500
C210        C  0.69384317  0.06444955  0.18578220     0.01100
C211        C  0.64779164  0.02969649  0.18764236    -0.11000
C212        C  0.62846865  0.99119445  0.17772529     0.03600
C213        C  0.65463282  0.98788086  0.16548578    -0.10500
H214        H  0.75539774  0.08306849  0.17178036     0.09200
H215        H  0.62602981  0.03263902  0.19636761     0.06700
H216        H  0.63925474  0.95853421  0.15766886     0.06600
C217        C  0.47754038  0.69306819  0.32788546     0.03600
C218        C  0.49814412  0.73298768  0.33730792    -0.12500
C219        C  0.51650686  0.73330084  0.35269868     0.01100
C220        C  0.51206633  0.69201879  0.35854401    -0.11000
C221        C  0.49225743  0.65240281  0.34920094     0.03600
C222        C  0.47480290  0.65336418  0.33411197    -0.10500
H223        H  0.50120231  0.76385188  0.33234108     0.09200
H224        H  0.52360694  0.69023235  0.37044690     0.06700
H225        H  0.45878538  0.62245060  0.32712148     0.06600
C226        C  0.59854946  0.82050737  0.38329518     0.03600
C227        C  0.57556552  0.78133687  0.37374972    -0.12500
C228        C  0.54163626  0.77628589  0.36255875     0.01100
C229        C  0.53204602  0.81238132  0.36110051    -0.11000
C230        C  0.55541495  0.85201751  0.37050696     0.03600
C231        C  0.58878756  0.85555351  0.38124236    -0.10500
H232        H  0.58520307  0.75554831  0.37487428     0.09200
H233        H  0.50582657  0.80948402  0.35300218     0.06700
H234        H  0.60771015  0.88616956  0.38823478     0.06600
C235        C  0.27405144  0.16277252  0.71499577     0.03600
C236        C  0.25487672  0.12342906  0.70541985    -0.12500
C237        C  0.22198650  0.11600828  0.69350743     0.01100
C238        C  0.20870366  0.14937222  0.69161110    -0.11000
C239        C  0.22769466  0.18867350  0.70112974     0.03600
C240        C  0.26016028  0.19484100  0.71266715    -0.10500
H241        H  0.26676877  0.09950282  0.70707205     0.09200
H242        H  0.18260656  0.14463436  0.68313747     0.06700
H243        H  0.27461588  0.22504283  0.72000473     0.06600
C244        C  0.16524790  0.03593251  0.65782010     0.03600
C245        C  0.18380563  0.07447228  0.66773177    -0.12500
C246        C  0.20201019  0.07415075  0.68300731     0.01100
C247        C  0.20066168  0.03343034  0.68804515    -0.11000
C248        C  0.18227557  0.99480210  0.67807292     0.03600
C249        C  0.16575478  0.99709020  0.66295044    -0.10500
H250        H  0.18489404  0.10481776  0.66319095     0.09200
H251        H  0.21247009  0.03088833  0.69982829     0.06700
H252        H  0.15229155  0.96788514  0.65508643     0.06600
C253        C  0.44060232  0.99389967  0.49762971     0.03600
C254        C  0.40284872  0.97395824  0.50788324    -0.12500
C255        C  0.39838713  0.94182293  0.51965627     0.01100
C256        C  0.43334084  0.93045261  0.52083445    -0.11000
C257        C  0.47153175  0.95061043  0.51062246     0.03600
C258        C  0.47461787  0.98241907  0.49926274    -0.10500
H259        H  0.37804959  0.98495654  0.50694469     0.09200
H260        H  0.43072406  0.90526879  0.52937505     0.06700
H261        H  0.50414243  0.99897305  0.49157032     0.06600
C262        C  0.32166424  0.88519894  0.55625037     0.03600
C263        C  0.35970465  0.90395947  0.54599358    -0.12500
C264        C  0.35758622  0.92078233  0.53061957     0.01100
C265        C  0.31596231  0.91765034  0.52582381    -0.11000
C266        C  0.27828989  0.89973174  0.53613742     0.03600
C267        C  0.28195615  0.88443549  0.55129150    -0.10500
H268        H  0.39088825  0.90626530  0.55021642     0.09200
H269        H  0.31203360  0.92812433  0.51397034     0.06700
H270        H  0.25326701  0.87150501  0.55939299     0.06600
C271        C  0.64907328  0.55004478  0.22137751     0.03600
C272        C  0.68814123  0.56947269  0.21157631    -0.12500
C273        C  0.68821169  0.58874427  0.19642339     0.01100
C274        C  0.64813079  0.58838953  0.19150583    -0.11000
C275        C  0.60988297  0.57098687  0.20154031     0.03600
C276        C  0.61088057  0.55203277  0.21632392    -0.10500
H277        H  0.71833863  0.56989589  0.21591494     0.09200
H278        H  0.64605844  0.60067414  0.17976980     0.06700
H279        H  0.58102294  0.53779587  0.22394063     0.06600
C280        C  0.77518995  0.66059782  0.16391018     0.03600
C281        C  0.73698568  0.64235224  0.17406488    -0.12500
C282        C  0.72941826  0.60852376  0.18565465     0.01100
C283        C  0.76143092  0.59346983  0.18675971    -0.11000
C284        C  0.79969429  0.61134825  0.17671844     0.03600
C285        C  0.80615312  0.64475390  0.16541535    -0.10500
H286        H  0.71406855  0.65571045  0.17310254     0.09200
H287        H  0.75628037  0.56679503  0.19505450     0.06700
H288        H  0.83564087  0.65845858  0.15768359     0.06600
C289        C  0.81860082  0.36104411  0.99244096     0.03600
C290        C  0.83860805  0.40004924  0.00206773    -0.12500
C291        C  0.85552680  0.39922151  0.01750404     0.01100
C292        C  0.85196409  0.35789807  0.02297444    -0.11000
C293        C  0.83221082  0.31879789  0.01334519     0.03600
C294        C  0.81542470  0.32086399  0.99825339    -0.10500
H295        H  0.84206173  0.43116825  0.99719558     0.09200
H296        H  0.86348476  0.35533263  0.03480339     0.06700
H297        H  0.79991028  0.29076321  0.99086594     0.06600
C298        C  0.93369824  0.48779855  0.04809344     0.03600
C299        C  0.91103877  0.44761230  0.03914070    -0.12500
C300        C  0.87799258  0.44160924  0.02755763     0.01100
C301        C  0.86732715  0.47681802  0.02551813    -0.11000
C302        C  0.89021029  0.51737422  0.03434340     0.03600
C303        C  0.92415814  0.52270387  0.04515325    -0.10500
H304        H  0.92061679  0.42198715  0.04088585     0.09200
H305        H  0.84063647  0.47261424  0.01740749     0.06700
H306        H  0.94320071  0.55430972  0.05161370     0.06600
C307        C  0.09619210  0.30490081  0.82644443     0.03600
C308        C  0.05822420  0.28696148  0.83658112    -0.12500
C309        C  0.05162498  0.25446401  0.84847296     0.01100
C310        C  0.08511687  0.24142554  0.85029273    -0.11000
C311        C  0.12445009  0.26108890  0.84071545     0.03600
C312        C  0.12896033  0.29196518  0.82874034    -0.10500
H313        H  0.03440521  0.29905871  0.83531993     0.09200
H314        H  0.08073588  0.21592886  0.85898168     0.06700
H315        H  0.15885324  0.30663859  0.82114454     0.06600
C316        C  0.97319086  0.20192740  0.88465040     0.03600
C317        C  0.01124662  0.21877611  0.87457762    -0.12500
C318        C  0.01039142  0.23519862  0.85906285     0.01100
C319        C  0.96980762  0.23349275  0.85383696    -0.11000
C320        C  0.93177496  0.21684160  0.86391505     0.03600
C321        C  0.93415988  0.20186132  0.87931046    -0.10500
H322        H  0.04164180  0.21999797  0.87915932     0.09200
H323        H  0.96687315  0.24381750  0.84183586     0.06700
H324        H  0.90498903  0.18930611  0.88716413     0.06600
O325        O  0.54489133  0.17652602  0.81630737    -0.79600
O326        O  0.65666591  0.39175467  0.86807343    -0.81200
O327        O  0.61657536  0.34203335  0.81515674    -0.78200
O328        O  0.67205131  0.27222171  0.84465588    -0.76600
O329        O  0.64602332  0.22532147  0.86661807    -0.78400
O330        O  0.55054354  0.34499089  0.81477803    -0.79300
O331        O  0.67910446  0.36494863  0.84682971    -0.80600
O332        O  0.61310756  0.24319190  0.81515992    -0.80900
Eu333      Eu  0.61401036  0.29213093  0.83735025     2.39200
O334        O  0.61299882  0.29170435  0.86554067    -0.88400
O335        O  0.53843583  0.25707903  0.82780492    -0.92000
C336        C  0.58485456  0.20243142  0.81029587     1.02600
C337        C  0.68645371  0.39473727  0.85781177     1.02500
C338        C  0.59039776  0.35612401  0.80933740     1.02400
C339        C  0.67557474  0.24698211  0.85549228     1.00300
H340        H  0.59589891  0.36381032  0.84295233     0.30000
O341        O  0.57912358  0.33279046  0.84665181    -1.00800
H342        H  0.58649564  0.19946160  0.84346859     0.30100
O343        O  0.57254565  0.21674542  0.84709485    -1.03400
O344        O  0.53582663  0.33486511  0.89801484    -0.80600
O345        O  0.42032359  0.12147047  0.84533402    -0.80100
O346        O  0.51872680  0.37455408  0.84484588    -0.78600
O347        O  0.62417544  0.26477638  0.89661651    -0.81900
O348        O  0.55119218  0.13804068  0.86826124    -0.79800
O349        O  0.45931619  0.25251158  0.81394005    -0.78400
O350        O  0.40090658  0.23682080  0.86672026    -0.79900
O351        O  0.46156061  0.17738093  0.89782803    -0.81900
O352        O  0.42666870  0.28180821  0.84431648    -0.78600
O353        O  0.52672887  0.17296928  0.89856154    -0.81300
O354        O  0.56469548  0.39467259  0.86695097    -0.77000
O355        O  0.45373053  0.18241730  0.81414959    -0.77000
O356        O  0.50498751  0.11710576  0.84618474    -0.76700
O357        O  0.62593181  0.33312324  0.89712315    -0.80200
O358        O  0.46528760  0.27096928  0.89792026    -0.79600
O359        O  0.40293164  0.14624002  0.86832996    -0.77900
Eu360      Eu  0.57872715  0.33287034  0.87478676     2.39800
Eu361      Eu  0.49731935  0.18170785  0.83758973     2.39600
Eu362      Eu  0.50356274  0.29788690  0.83720925     2.38400
Eu363      Eu  0.57267627  0.21667268  0.87525147     2.39900
Eu364      Eu  0.46303038  0.22363038  0.87505994     2.39800
O365        O  0.49748616  0.18271918  0.86578737    -0.92300
O366        O  0.50333981  0.29884283  0.86545426    -0.91200
C367        C  0.49587197  0.30916370  0.90396972     1.02800
C368        C  0.39395534  0.11641964  0.85725627     1.01500
C369        C  0.54233258  0.40256249  0.85609612     1.00900
C370        C  0.63789890  0.30486908  0.90235876     1.02900
C371        C  0.52628593  0.10931827  0.85739233     1.01900
C372        C  0.44570470  0.21261138  0.80799554     1.00700
C373        C  0.39601381  0.25881374  0.85497801     1.00800
C374        C  0.48746011  0.16374111  0.90408053     1.03400
H375        H  0.43187907  0.20773748  0.84287685     0.30800
O376        O  0.46289938  0.22267854  0.84682426    -1.04500
H377        H  0.53870858  0.25814356  0.89614023     0.32800
O378        O  0.53834172  0.25783977  0.88462974    -1.07100
O379        O  0.78841088  0.84617327  0.97975396    -0.79600
O380        O  0.88102878  0.05410837  0.03341328    -0.81200
O381        O  0.74863488  0.93504213  0.00838292    -0.78200
O382        O  0.87582273  0.00875040  0.98116073    -0.76600
O383        O  0.94309039  0.00836608  0.98025596    -0.78400
O384        O  0.72689240  0.88872375  0.03049656    -0.79300
O385        O  0.83490156  0.02961536  0.01129035    -0.80600
O386        O  0.78618076  0.91248852  0.97884311    -0.80900
Eu387      Eu  0.82758978  0.95700803  0.00260352     2.39200
O388        O  0.90243148  0.99667035  0.01237849    -0.88400
O389        O  0.79197243  0.88140318  0.01204479    -0.92000
C390        C  0.77675375  0.87333869  0.97322303     1.02600
C391        C  0.85606676  0.05838913  0.02263410     1.02500
C392        C  0.71928299  0.90951124  0.01897376     1.02400
C393        C  0.91545074  0.02129765  0.97514552     1.00300
H394        H  0.80903243  0.96966205  0.03474116     0.30000
O395        O  0.82619906  0.95588852  0.03090411    -1.00800
H396        H  0.86815751  0.92196407  0.98180842     0.30100
O397        O  0.86764660  0.92157015  0.99327939    -1.03400
O398        O  0.95423300  0.00034152  0.06201066    -0.80600
O399        O  0.84761568  0.78547064  0.01118871    -0.80100
O400        O  0.78887344  0.92554830  0.06279982    -0.78600
O401        O  0.00260081  0.03874326  0.01052898    -0.81900
O402        O  0.94290259  0.91706089  0.97973176    -0.79800
O403        O  0.73097681  0.80305373  0.03289022    -0.78400
O404        O  0.86251455  0.84576106  0.06484493    -0.79900
O405        O  0.98385217  0.90018501  0.03211212    -0.81900
O406        O  0.79123536  0.83747939  0.06402997    -0.78600
O407        O  0.00292207  0.94417064  0.00945533    -0.81300
O408        O  0.85595917  0.99324147  0.06415495    -0.77000
O409        O  0.75490423  0.78462024  0.00991680    -0.77000
O410        O  0.87917162  0.84642500  0.98056656    -0.76700
O411        O  0.97533531  0.06005003  0.03196933    -0.80200
O412        O  0.95863339  0.93516316  0.06239625    -0.79600
O413        O  0.89098237  0.80906600  0.03400032    -0.77900
Eu414      Eu  0.90167348  0.99616757  0.04060625     2.39800
Eu415      Eu  0.83229234  0.84614952  0.00307501     2.39600
Eu416      Eu  0.79093788  0.88035044  0.04022281     2.38400
Eu417      Eu  0.94271336  0.96158966  0.00287145     2.39900
Eu418      Eu  0.90785991  0.88638119  0.04082215     2.39800
O419        O  0.90757407  0.88646091  0.01257416    -0.92300
O420        O  0.86639273  0.92067758  0.04996133    -0.91200
C421        C  0.96999791  0.97531465  0.06758080     1.02800
C422        C  0.86889007  0.77958537  0.02293899     1.01500
C423        C  0.81592636  0.96420060  0.06942743     1.00900
C424        C  0.00569378  0.06767303  0.02120856     1.02900
C425        C  0.91725946  0.87644941  0.97429600     1.01900
C426        C  0.72534518  0.77618872  0.02109565     1.00700
C427        C  0.82228087  0.83161518  0.07070142     1.00800
C428        C  0.01077449  0.92168613  0.02026222     1.03400
H429        H  0.81711222  0.81478986  0.03531682     0.30800
O430        O  0.83219184  0.84591251  0.03129788    -1.04500
H431        H  0.97346782  0.97802405  0.03457625     0.32800
O432        O  0.94228814  0.96143732  0.03103024    -1.07100
O433        O  0.62127334  0.34027182  0.39753813    -0.79600
O434        O  0.52233067  0.12520167  0.34635298    -0.81200
O435        O  0.53465578  0.18359546  0.39960014    -0.78200
O436        O  0.65664658  0.24556604  0.36882271    -0.76600
O437        O  0.67720608  0.29209726  0.34679642    -0.78400
O438        O  0.46353329  0.17564784  0.39949670    -0.79300
O439        O  0.56615857  0.15052367  0.36899263    -0.80600
O440        O  0.62343721  0.27388604  0.39832743    -0.80900
Eu441      Eu  0.57820189  0.22611824  0.37589382     2.39200
O442        O  0.57900301  0.22588060  0.34772113    -0.88400
O443        O  0.53628723  0.25984103  0.38483134    -0.92000
C444        C  0.63514568  0.31405725  0.40348288     1.02600
C445        C  0.54505419  0.12071794  0.35794245     1.02500
C446        C  0.49487771  0.16952074  0.40575021     1.02400
C447        C  0.68540530  0.27060151  0.35791647     1.00300
H448        H  0.48833953  0.15241401  0.37066243     0.30000
O449        O  0.50252013  0.18340546  0.36665640    -1.00800
H450        H  0.64288241  0.31886681  0.37017726     0.30100
O451        O  0.61187118  0.30147889  0.36636700    -1.03400
O452        O  0.45478367  0.17984821  0.31587270    -0.80600
O453        O  0.54698725  0.39169122  0.36831546    -0.80100
O454        O  0.40062143  0.14093955  0.36725823    -0.78600
O455        O  0.61454470  0.25568070  0.31572936    -0.81900
O456        O  0.66997328  0.37979176  0.34538223    -0.79800
O457        O  0.46107946  0.26065610  0.39938796    -0.78400
O458        O  0.41806791  0.27545646  0.34503312    -0.79900
O459        O  0.54199004  0.34101174  0.31547717    -0.81900
O460        O  0.40005426  0.23415539  0.36833988    -0.78600
O461        O  0.61230354  0.34706361  0.31532366    -0.81300
O462        O  0.42679910  0.12206034  0.34491249    -0.77000
O463        O  0.52447651  0.33163480  0.39881348    -0.77000
O464        O  0.64246819  0.40034156  0.36691881    -0.76700
O465        O  0.55010043  0.18553472  0.31551791    -0.80200
O466        O  0.44859650  0.24392865  0.31501895    -0.79600
O467        O  0.50292001  0.36571963  0.34574650    -0.77900
Eu468      Eu  0.50351655  0.18387071  0.33837698     2.39800
Eu469      Eu  0.57000171  0.33522904  0.37544662     2.39600
Eu470      Eu  0.46071575  0.21745007  0.37571604     2.38400
Eu471      Eu  0.61254821  0.30125548  0.33821991     2.39900
Eu472      Eu  0.49487567  0.29223116  0.33765244     2.39800
O473        O  0.57005631  0.33461408  0.34722151    -0.92300
O474        O  0.46143816  0.21728424  0.34751057    -0.91200
C475        C  0.43943549  0.20447527  0.30969865     1.02800
C476        C  0.52230269  0.39489409  0.35715542     1.01500
C477        C  0.39612009  0.11408319  0.35555354     1.00900
C478        C  0.58906362  0.21558228  0.30981657     1.02900
C479        C  0.67262288  0.40854307  0.35603571     1.01900
C480        C  0.48695334  0.30079870  0.40516022     1.00700
C481        C  0.39163668  0.25497152  0.35701844     1.00800
C482        C  0.58253704  0.35662355  0.30977325     1.03400
H483        H  0.47790996  0.30651073  0.36990275     0.30800
O484        O  0.49490588  0.29245136  0.36594776    -1.04500
H485        H  0.53727856  0.25879241  0.31707924     0.32800
O486        O  0.53723933  0.25898485  0.32856871    -1.07100
O487        O  0.33910779  0.71152867  0.68021212    -0.79600
O488        O  0.12506675  0.59408851  0.73126278    -0.81200
O489        O  0.22017098  0.72496542  0.70207391    -0.78200
O490        O  0.28512935  0.66552752  0.73121826    -0.76600
O491        O  0.29067097  0.60102425  0.73141088    -0.78400
O492        O  0.17229024  0.69960974  0.68044148    -0.79300
O493        O  0.19126784  0.66264094  0.73215253    -0.80600
O494        O  0.31144728  0.73052719  0.70211276    -0.80900
Eu495      Eu  0.23759063  0.66496532  0.70918729     2.39200
O496        O  0.20307528  0.58945594  0.71858052    -0.88400
O497        O  0.23850565  0.66621362  0.68112594    -0.92000
C498        C  0.34197675  0.73950531  0.69129633     1.02600
C499        C  0.15153466  0.63342080  0.73751004     1.02500
C500        C  0.19473780  0.72899608  0.69145116     1.02400
C501        C  0.30052417  0.64048415  0.73688275     1.00300
H502        H  0.14529601  0.63911461  0.70355233     0.30000
O503        O  0.16235048  0.62538827  0.69959724    -1.00800
H504        H  0.31054848  0.64759635  0.70369538     0.30100
O505        O  0.27931849  0.63113736  0.69976255    -1.03400
O506        O  0.06933757  0.47357755  0.70066231    -0.80600
O507        O  0.28499993  0.58808050  0.64929761    -0.80100
O508        O  0.08396606  0.60439759  0.67774956    -0.78600
O509        O  0.19702056  0.50802567  0.73122583    -0.81900
O510        O  0.31851168  0.56730991  0.70087472    -0.79800
O511        O  0.21261401  0.68004148  0.65043398    -0.78400
O512        O  0.12645416  0.52011867  0.64711223    -0.79900
O513        O  0.18434595  0.45599407  0.67721176    -0.81900
O514        O  0.12037312  0.58428902  0.64760784    -0.78600
O515        O  0.22584419  0.47772654  0.70046035    -0.81300
O516        O  0.06406741  0.55843741  0.69989342    -0.77000
O517        O  0.28131098  0.68241501  0.64959303    -0.77000
O518        O  0.33970359  0.61396867  0.67884106    -0.76700
O519        O  0.12737640  0.50333360  0.73152427    -0.80200
O520        O  0.09350887  0.45662969  0.67738431    -0.79600
O521        O  0.21960811  0.51873541  0.64850068    -0.77900
Eu522      Eu  0.12828494  0.54975860  0.70859444     2.39800
Eu523      Eu  0.28093461  0.63360619  0.67160234     2.39600
Eu524      Eu  0.16355934  0.62699799  0.67134889     2.38400
Eu525      Eu  0.24345597  0.55483577  0.70871328     2.39900
Eu526      Eu  0.17024228  0.51811949  0.67032107     2.39800
O527        O  0.24455364  0.55790856  0.68057495    -0.92300
O528        O  0.12911038  0.55140183  0.68033222    -0.91200
C529        C  0.06424064  0.44748733  0.68871408     1.02800
C530        C  0.25985800  0.54777400  0.64345222     1.01500
C531        C  0.05529069  0.57882040  0.68856543     1.00900
C532        C  0.15696901  0.49368089  0.73716620     1.02900
C533        C  0.34601284  0.58954132  0.68931983     1.01900
C534        C  0.25298548  0.69477381  0.64469267     1.00700
C535        C  0.11258297  0.54636659  0.64130649     1.00800
C536        C  0.20467322  0.44913580  0.68903280     1.03400
H537        H  0.20686337  0.59531918  0.64993914     0.30800
O538        O  0.20589529  0.59417203  0.66137254    -1.04500
H539        H  0.15373357  0.48436555  0.70226305     0.32800
O540        O  0.16886200  0.51570787  0.69863198    -1.07100
O541        O  0.20826035  0.50879932  0.14752057    -0.79600
O542        O  0.31878223  0.72353016  0.19882350    -0.81200
O543        O  0.27880070  0.66992745  0.14714319    -0.78200
O544        O  0.33837940  0.60596351  0.17689330    -0.76600
O545        O  0.31344685  0.56079763  0.19921928    -0.78400
O546        O  0.21322358  0.67365511  0.14711600    -0.79300
O547        O  0.33807925  0.69763119  0.17651368    -0.80600
O548        O  0.27579869  0.57615480  0.14648433    -0.80900
Eu549      Eu  0.27703224  0.62189998  0.16945970     2.39200
O550        O  0.27866957  0.62329151  0.19764428    -0.88400
O551        O  0.20161496  0.58705518  0.16007617    -0.92000
C552        C  0.24774190  0.53578608  0.14136995     1.02600
C553        C  0.34588534  0.72794053  0.18723390     1.02500
C554        C  0.25264846  0.68399812  0.14143178     1.02400
C555        C  0.34308690  0.58262727  0.18821481     1.00300
H556        H  0.25792010  0.69352619  0.17515339     0.30000
O557        O  0.24196223  0.66228453  0.17903071    -1.00800
H558        H  0.25185240  0.53018426  0.17509186     0.30100
O559        O  0.23724499  0.54668169  0.17894827    -1.03400
O560        O  0.20106041  0.66251419  0.23106253    -0.80600
O561        O  0.08407632  0.45194928  0.17701912    -0.80100
O562        O  0.17884220  0.70193462  0.17786425    -0.78600
O563        O  0.28984836  0.59646043  0.22899740    -0.81900
O564        O  0.22041952  0.47012764  0.19982173    -0.79800
O565        O  0.12362494  0.58401601  0.14624449    -0.78400
O566        O  0.06760373  0.56948268  0.20026295    -0.79900
O567        O  0.12748557  0.50123709  0.22908391    -0.81900
O568        O  0.08932752  0.61039929  0.17684913    -0.78600
O569        O  0.19597658  0.50333398  0.23031432    -0.81300
O570        O  0.22116162  0.72093468  0.20089069    -0.77000
O571        O  0.11894261  0.51438341  0.14591186    -0.77000
O572        O  0.17330445  0.44958578  0.17799536    -0.76700
O573        O  0.29030544  0.66412419  0.22972934    -0.80200
O574        O  0.13157541  0.59729134  0.23170406    -0.79600
O575        O  0.06564698  0.47789610  0.19951885    -0.77900
Eu576      Eu  0.24286718  0.66297516  0.20718818     2.39800
Eu577      Eu  0.16156372  0.51186293  0.16960081     2.39600
Eu578      Eu  0.16654087  0.62709117  0.16980167     2.38400
Eu579      Eu  0.23909492  0.54814105  0.20716172     2.39900
Eu580      Eu  0.12805593  0.55242557  0.20777302     2.39800
O581        O  0.16352939  0.51321281  0.19784130    -0.92300
O582        O  0.16723622  0.62758415  0.19806997    -0.91200
C583        C  0.16213508  0.63587664  0.23756404     1.02800
C584        C  0.05660290  0.44818427  0.18839541     1.01500
C585        C  0.19832039  0.72806430  0.18998499     1.00900
C586        C  0.30284383  0.63626891  0.23497494     1.02900
C587        C  0.19575003  0.44180666  0.18880136     1.01900
C588        C  0.11086016  0.54478399  0.13993220     1.00700
C589        C  0.06068104  0.58949342  0.18828234     1.00800
C590        C  0.15516934  0.48956414  0.23524624     1.03400
H591        H  0.09578732  0.53730928  0.17555110     0.30800
O592        O  0.12678156  0.55195455  0.17943379    -1.04500
H593        H  0.20451157  0.58740750  0.22841333     0.32800
O594        O  0.20377494  0.58770127  0.21686180    -1.07100
O595        O  0.87257117  0.99868757  0.56480916    -0.79600
O596        O  0.75560546  0.78756709  0.51139577    -0.81200
O597        O  0.73986936  0.90687172  0.53350792    -0.78200
O598        O  0.80008372  0.84521698  0.56493610    -0.76600
O599        O  0.86416050  0.83870443  0.56465686    -0.78400
O600        O  0.76338119  0.94811898  0.51020689    -0.79300
O601        O  0.73684685  0.81307700  0.53393757    -0.80600
O602        O  0.80141684  0.93572117  0.56459251    -0.80900
Eu603      Eu  0.79940082  0.88905532  0.54146026     2.39200
O604        O  0.83325966  0.84758102  0.53194614    -0.88400
O605        O  0.84098787  0.96420603  0.53191578    -0.92000
C606        C  0.83238910  0.97363462  0.57072253     1.02600
C607        C  0.72823453  0.78321807  0.52288473     1.02500
C608        C  0.73406545  0.92756670  0.52150067     1.02400
C609        C  0.82623132  0.83138562  0.57088518     1.00300
H610        H  0.76820636  0.87421853  0.50913477     0.30000
O611        O  0.79901376  0.88847977  0.51312641    -1.00800
H612        H  0.87569125  0.92256965  0.56210914     0.30100
O613        O  0.87507290  0.92237003  0.55063285    -1.03400
O614        O  0.87899930  0.84417206  0.48163032    -0.80600
O615        O  0.99269114  0.05721657  0.53367072    -0.80100
O616        O  0.80009014  0.92139842  0.47932784    -0.78600
O617        O  0.88729604  0.80242957  0.53381414    -0.81900
O618        O  0.95926619  0.92593153  0.56310991    -0.79800
O619        O  0.85676309  0.04021682  0.51220288    -0.78400
O620        O  0.94986229  0.00046663  0.48015007    -0.79900
O621        O  0.01040641  0.94046038  0.51125449    -0.81900
O622        O  0.88731127  0.00941536  0.48102433    -0.78600
O623        O  0.98371575  0.89274747  0.53295271    -0.81300
O624        O  0.79099552  0.84988012  0.47988688    -0.77000
O625        O  0.89809048  0.05831120  0.53547026    -0.77000
O626        O  0.96161302  0.99448185  0.56436269    -0.76700
O627        O  0.84011316  0.78136256  0.51200790    -0.80200
O628        O  0.94851648  0.90935449  0.48083733    -0.79600
O629        O  0.01207694  0.03292463  0.51093837    -0.77900
Eu630      Eu  0.83280657  0.84690363  0.50373121     2.39800
Eu631      Eu  0.91614776  0.99771759  0.54153160     2.39600
Eu632      Eu  0.84069851  0.96388565  0.50367228     2.38400
Eu633      Eu  0.90889499  0.88099793  0.54105274     2.39900
Eu634      Eu  0.94999079  0.95659936  0.50358231     2.39800
O635        O  0.95013696  0.95651306  0.53180404    -0.92300
O636        O  0.87449978  0.92233679  0.49443288    -0.91200
C637        C  0.91883975  0.86971332  0.47551941     1.02800
C638        C  0.02006207  0.06231749  0.52210137     1.01500
C639        C  0.78532789  0.88126015  0.47336603     1.00900
C640        C  0.86180057  0.77348833  0.52309334     1.02900
C641        C  0.97292120  0.96538746  0.56940505     1.01900
C642        C  0.87669422  0.06646641  0.52430422     1.00700
C643        C  0.92464088  0.01590067  0.47460879     1.00800
C644        C  0.01415102  0.91576739  0.52224882     1.03400
H645        H  0.93274146  0.02939864  0.50929592     0.30800
O646        O  0.91605818  0.99802868  0.51320450    -1.04500
H647        H  0.92253914  0.86369332  0.50911441     0.32800
O648        O  0.90864487  0.88071033  0.51287696    -1.07100
C649        C  0.93363545  0.10329334  0.94614468     0.30300
C650        C  0.92589747  0.13547675  0.93847747    -0.36100
C651        C  0.94931712  0.15312312  0.92408694     0.16200
C652        C  0.97859372  0.14027955  0.91760270     0.22100
C653        C  0.98735859  0.10884913  0.92552715    -0.34200
C654        C  0.96373408  0.09100596  0.93999322     0.16200
O655        O  0.91281589  0.08037631  0.95916188    -0.26200
C656        C  0.93011422  0.05335547  0.96160848     0.05900
C657        C  0.96220182  0.05859443  0.95010777    -0.31100
O658        O  0.99306094  0.15776419  0.90318803    -0.22900
C659        C  0.97267535  0.18202416  0.90047338    -0.02900
C660        C  0.94559911  0.18076514  0.91321935    -0.17400
H661        H  0.90181432  0.14473924  0.94308546     0.20600
H662        H  0.00953728  0.09773777  0.92046306     0.19000
H663        H  0.98055416  0.04022640  0.94909784     0.18900
H664        H  0.92415986  0.19590221  0.91404323     0.14800
C665        C  0.75741889  0.21384075  0.85944404     0.30300
C666        C  0.77488105  0.18675378  0.86494818    -0.36100
C667        C  0.81955305  0.20054761  0.86039500     0.16200
C668        C  0.84587012  0.23872292  0.85121158     0.22100
C669        C  0.82795921  0.26542933  0.84535960    -0.34200
C670        C  0.78282913  0.25133088  0.84982223     0.16200
O671        O  0.71688394  0.20780802  0.86279145    -0.26200
C672        C  0.71580882  0.24149454  0.85506871     0.05900
C673        C  0.75583771  0.26965450  0.84673047    -0.31100
O674        O  0.88861495  0.24810980  0.85017369    -0.22900
C675        C  0.88931298  0.21541026  0.85883637    -0.02900
C676        C  0.84689569  0.18435352  0.86507212    -0.17400
H677        H  0.75546340  0.15772150  0.87269446     0.20600
H678        H  0.84820056  0.29585383  0.83832923     0.19000
H679        H  0.76399386  0.29953134  0.83964848     0.18900
H680        H  0.83806310  0.15579182  0.87297042     0.14800
C681        C  0.11136643  0.42406705  0.77139773     0.30300
C682        C  0.08056141  0.40044156  0.78395875    -0.36100
C683        C  0.09398173  0.37738457  0.79479364     0.16200
C684        C  0.13457728  0.37766777  0.79319864     0.22100
C685        C  0.16488854  0.40083244  0.78077005    -0.34200
C686        C  0.15174832  0.42376189  0.77011798     0.16200
O687        O  0.10687471  0.44856219  0.75990038    -0.26200
C688        C  0.14510773  0.46390430  0.75135173     0.05900
C689        C  0.17390918  0.44929933  0.75721386    -0.31100
O690        O  0.14044871  0.35352473  0.80419623    -0.22900
C691        C  0.10324081  0.33694682  0.81318850    -0.02900
C692        C  0.07293556  0.35089817  0.80794236    -0.17400
H693        H  0.04861588  0.40004900  0.78519765     0.20600
H694        H  0.19667272  0.40090431  0.77948081     0.19000
H695        H  0.20677572  0.45667776  0.75264301     0.18900
H696        H  0.03991582  0.34206289  0.81275008     0.14800
C697        C  0.22715784  0.26026275  0.83900994     0.30300
C698        C  0.27075179  0.27517600  0.83300313    -0.36100
C699        C  0.29840623  0.26455026  0.84223350     0.16200
C700        C  0.28421795  0.24011256  0.85634006     0.22100
C701        C  0.24002402  0.22476438  0.86235687    -0.34200
C702        C  0.21227428  0.23613750  0.85315195     0.16200
O703        O  0.19755791  0.26987163  0.83275548    -0.26200
C704        C  0.16268502  0.25207287  0.84289928     0.05900
C705        C  0.16976593  0.23017575  0.85586854    -0.31100
O706        O  0.31669848  0.23484284  0.86301330    -0.22900
C707        C  0.35187530  0.25664705  0.85302255    -0.02900
C708        C  0.34223169  0.27570989  0.83994846    -0.17400
H709        H  0.28277698  0.29499654  0.82208980     0.20600
H710        H  0.22855745  0.20637784  0.87356599     0.19000
H711        H  0.14815915  0.21446224  0.86618172     0.18900
H712        H  0.36433546  0.29486512  0.83009256     0.14800
C713        C  0.04663715  0.50100625  0.10459141     0.30300
C714        C  0.01787690  0.46788682  0.09345494    -0.36100
C715        C  0.00222512  0.48361106  0.08068093     0.16200
C716        C  0.01455197  0.52876635  0.07899825     0.22100
C717        C  0.04360648  0.56174097  0.08991090    -0.34200
C718        C  0.05859421  0.54602538  0.10270397     0.16200
O719        O  0.06348747  0.49400986  0.11791433    -0.26200
C720        C  0.08610264  0.53513398  0.12459795     0.05900
C721        C  0.08413404  0.56862029  0.11560710    -0.31100
O722        O  0.99354431  0.53582337  0.06708534    -0.22900
C723        C  0.96715848  0.49481681  0.06082620    -0.02900
C724        C  0.97136904  0.46083219  0.06877648    -0.17400
H725        H  0.00721504  0.43225624  0.09494459     0.20600
H726        H  0.05245668  0.59701491  0.08884218     0.19000
H727        H  0.09908187  0.60447937  0.11828418     0.18900
H728        H  0.95253606  0.42449457  0.06676595     0.14800
C729        C  0.86128344  0.60074777  0.02334412     0.30300
C730        C  0.84898652  0.62612215  0.01318215    -0.36100
C731        C  0.85644154  0.66803454  0.01930353     0.16200
C732        C  0.87452078  0.68350891  0.03434127     0.22100
C733        C  0.88540104  0.65777584  0.04455374    -0.34200
C734        C  0.87814038  0.61639560  0.03846438     0.16200
O735        O  0.86148684  0.56271553  0.01981163    -0.26200
C736        C  0.87885932  0.55436849  0.03291502     0.05900
C737        C  0.88880001  0.58644999  0.04491085    -0.31100
O738        O  0.88132147  0.72439941  0.03743387    -0.22900
C739        C  0.86716893  0.73561903  0.02428888    -0.02900
C740        C  0.85096065  0.70177687  0.01259012    -0.17400
H741        H  0.83614504  0.61488319  0.00119480     0.20600
H742        H  0.90017489  0.66999579  0.05626497     0.19000
H743        H  0.90333906  0.58865638  0.05663838     0.18900
H744        H  0.83801301  0.70242844  0.00079672     0.14800
C745        C  0.85185022  0.23112074  0.02640392     0.30300
C746        C  0.87764958  0.21226115  0.03238835    -0.36100
C747        C  0.86175022  0.16635379  0.02852125     0.16200
C748        C  0.82315819  0.14089983  0.01944112     0.22100
C749        C  0.79685300  0.15929068  0.01388281    -0.34200
C750        C  0.81276911  0.20494676  0.01768109     0.16200
O751        O  0.86278105  0.27443825  0.02694621    -0.26200
C752        C  0.83016547  0.27579344  0.01842849     0.05900
C753        C  0.79786414  0.23318882  0.01266461    -0.31100
O754        O  0.81617405  0.09991292  0.01619907    -0.22900
C755        C  0.85044428  0.09863622  0.02342073    -0.02900
C756        C  0.87976685  0.13891718  0.03137471    -0.17400
H757        H  0.90893516  0.23242678  0.03896361     0.20600
H758        H  0.76708724  0.13990829  0.00647825     0.19000
H759        H  0.76886442  0.22447399  0.00503095     0.18900
H760        H  0.91062176  0.14719757  0.03783183     0.14800
C761        C  0.76084900  0.36940427  0.95871169     0.30300
C762        C  0.73192210  0.38073894  0.95028879    -0.36100
C763        C  0.71098573  0.35466276  0.93652942     0.16200
C764        C  0.71814545  0.32000671  0.93148772     0.22100
C765        C  0.74777407  0.30958784  0.93961021    -0.34200
C766        C  0.76853167  0.33548144  0.95326016     0.16200
O767        O  0.77986587  0.38529901  0.97284192    -0.26200
C768        C  0.79976653  0.36099424  0.97640145     0.05900
C769        C  0.79451708  0.33031371  0.96439639    -0.31100
O770        O  0.69335955  0.29812837  0.91897076    -0.22900
C771        C  0.67021111  0.31919336  0.91573075    -0.02900
C772        C  0.67984364  0.35483953  0.92620834    -0.17400
H773        H  0.72477381  0.40665739  0.95451075     0.20600
H774        H  0.75287500  0.28190699  0.93590563     0.19000
H775        H  0.80563999  0.30548191  0.96427081     0.18900
H776        H  0.66522439  0.37680381  0.92640242     0.14800
C777        C  0.96021147  0.58663997  0.17642751     0.30300
C778        C  0.93087006  0.59063630  0.16559979    -0.36100
C779        C  0.89165115  0.58799241  0.17217154     0.16200
C780        C  0.88137610  0.58128500  0.18829259     0.22100
C781        C  0.91004152  0.57551154  0.19909895    -0.34200
C782        C  0.94978257  0.57871475  0.19252205     0.16200
O783        O  0.00047982  0.59198546  0.17296711    -0.26200
C784        C  0.01615242  0.58690807  0.18696797     0.05900
C785        C  0.98594595  0.57826108  0.19958245    -0.31100
O786        O  0.84596827  0.58596269  0.19201219    -0.22900
C787        C  0.83373783  0.59607411  0.17807274    -0.02900
C788        C  0.86061320  0.59685478  0.16533376    -0.17400
H789        H  0.93930355  0.59785412  0.15302756     0.20600
H790        H  0.90317704  0.57135241  0.21183955     0.19000
H791        H  0.99055173  0.57356768  0.21213568     0.18900
H792        H  0.85946543  0.60570009  0.15294487     0.14800
C793        C  0.76991340  0.72797960  0.13233315     0.30300
C794        C  0.74914473  0.73967967  0.11996349    -0.36100
C795        C  0.77834083  0.76855155  0.10781246     0.16200
C796        C  0.82462542  0.78484806  0.10799569     0.22100
C797        C  0.84534270  0.77438583  0.12051556    -0.34200
C798        C  0.81634194  0.74544919  0.13247875     0.16200
O799        O  0.74909910  0.69747942  0.14386976    -0.26200
C800        C  0.78278514  0.69535988  0.15141517     0.05900
C801        C  0.82534029  0.72530665  0.14491101    -0.31100
O802        O  0.84541267  0.80857112  0.09509283    -0.22900
C803        C  0.81240357  0.80813887  0.08638621    -0.02900
C804        C  0.76975681  0.78394587  0.09374959    -0.17400
H805        H  0.71266352  0.72561023  0.11944817     0.20600
H806        H  0.88148857  0.78631577  0.12052847     0.19000
H807        H  0.85821840  0.72996261  0.14824497     0.18900
H808        H  0.73722395  0.77769463  0.08922941     0.14800
C809        C  0.63122338  0.43153884  0.27698364     0.30300
C810        C  0.66216078  0.45491126  0.26445645    -0.36100
C811        C  0.65224511  0.48294424  0.25478339     0.16200
C812        C  0.61466208  0.48762792  0.25737244     0.22100
C813        C  0.58388776  0.46439001  0.26979426    -0.34200
C814        C  0.59356104  0.43630055  0.27930544     0.16200
O815        O  0.63294600  0.40280284  0.28735206    -0.26200
C816        C  0.59552922  0.38882543  0.29623257     0.05900
C817        C  0.56996165  0.40865266  0.29171078    -0.31100
O818        O  0.61027709  0.51330563  0.24651617    -0.22900
C819        C  0.64542991  0.52562423  0.23664883    -0.02900
C820        C  0.67296452  0.50783132  0.24129639    -0.17400
H821        H  0.69136266  0.45087916  0.26221759     0.20600
H822        H  0.55380718  0.46717663  0.27168026     0.19000
H823        H  0.53848137  0.40351408  0.29689768     0.18900
H824        H  0.70231154  0.51053411  0.23516698     0.14800
C825        C  0.50155032  0.55914250  0.19979974     0.30300
C826        C  0.45814738  0.54501428  0.20576186    -0.36100
C827        C  0.43340861  0.56143245  0.19766999     0.16200
C828        C  0.44976080  0.58974638  0.18449110     0.22100
C829        C  0.49365931  0.60397467  0.17844887    -0.34200
C830        C  0.51879794  0.58753629  0.18667840     0.16200
O831        O  0.53071876  0.54915412  0.20616518    -0.26200
C832        C  0.56774868  0.57127067  0.19716584     0.05900
C833        C  0.56231593  0.59575054  0.18470879    -0.31100
O834        O  0.42024129  0.60131526  0.17908778    -0.22900
C835        C  0.38495801  0.57997338  0.18904472    -0.02900
C836        C  0.39154257  0.55484445  0.20079547    -0.17400
H837        H  0.44488278  0.52330828  0.21621159     0.20600
H838        H  0.50743123  0.62668416  0.16827469     0.19000
H839        H  0.58705572  0.61770043  0.17592325     0.18900
H840        H  0.36880464  0.53482444  0.21039487     0.14800
C841        C  0.29074485  0.82961278  0.59335380     0.30300
C842        C  0.25940796  0.80673693  0.60562017    -0.36100
C843        C  0.26823073  0.77839579  0.61526276     0.16200
C844        C  0.30590275  0.77346258  0.61328187     0.22100
C845        C  0.33777402  0.79694798  0.60100917    -0.34200
C846        C  0.32841552  0.82487187  0.59107059     0.16200
O847        O  0.28576915  0.85354110  0.58202400    -0.26200
C848        C  0.32041324  0.86457755  0.57208696     0.05900
C849        C  0.34862302  0.84801290  0.57721576    -0.31100
O850        O  0.30604601  0.74346488  0.62339917    -0.22900
C851        C  0.26770900  0.72892631  0.63177143    -0.02900
C852        C  0.24296709  0.74957523  0.62717549    -0.17400
H853        H  0.22901032  0.80921834  0.60705583     0.20600
H854        H  0.36668733  0.79231213  0.59895139     0.19000
H855        H  0.37744397  0.84959811  0.57105660     0.18900
H856        H  0.21071554  0.74379923  0.63183543     0.14800
C857        C  0.10005879  0.88992409  0.52950534     0.30300
C858        C  0.11923226  0.86619010  0.53666497    -0.36100
C859        C  0.16460266  0.88117595  0.53275329     0.16200
C860        C  0.18984830  0.91727819  0.52258850     0.22100
C861        C  0.17029591  0.94066130  0.51514721    -0.34200
C862        C  0.12452328  0.92543655  0.51900118     0.16200
O863        O  0.05856060  0.88226644  0.53196754    -0.26200
C864        C  0.05584208  0.91283202  0.52280597     0.05900
C865        C  0.09585492  0.94071093  0.51439717    -0.31100
O866        O  0.23289098  0.92755316  0.52175045    -0.22900
C867        C  0.23500557  0.89755104  0.53153208    -0.02900
C868        C  0.19311159  0.86742042  0.53843030    -0.17400
H869        H  0.10036062  0.83859931  0.54502335     0.20600
H870        H  0.18965777  0.96932185  0.50725085     0.19000
H871        H  0.10293158  0.96848282  0.50632335     0.18900
H872        H  0.18491993  0.84032316  0.54695219     0.14800
C873        C  0.45166630  0.10627283  0.44132521     0.30300
C874        C  0.41869778  0.07754750  0.45256189    -0.36100
C875        C  0.43473232  0.06214425  0.46531853     0.16200
C876        C  0.48002562  0.07476816  0.46685473     0.22100
C877        C  0.51273955  0.10355993  0.45581857    -0.34200
C878        C  0.49674360  0.11826662  0.44307108     0.16200
O879        O  0.44447711  0.12292032  0.42799388    -0.26200
C880        C  0.48552602  0.14534831  0.42118577     0.05900
C881        C  0.51916019  0.14354165  0.43009296    -0.31100
O882        O  0.48753035  0.05406946  0.47872426    -0.22900
C883        C  0.44672443  0.02744256  0.48509102    -0.02900
C884        C  0.41230764  0.03127379  0.47731204    -0.17400
H885        H  0.38300311  0.06674334  0.45115501     0.20600
H886        H  0.54804397  0.11239675  0.45676917     0.19000
H887        H  0.55496206  0.15828967  0.42729302     0.18900
H888        H  0.37600309  0.01203260  0.47945046     0.14800
C889        C  0.55665135  0.92394308  0.52134225     0.30300
C890        C  0.58263882  0.91291197  0.53165396    -0.36100
C891        C  0.62397536  0.91915858  0.52539333     0.16200
C892        C  0.63848768  0.93496813  0.51004362     0.22100
C893        C  0.61221846  0.94502318  0.49968699    -0.34200
C894        C  0.57125053  0.93898127  0.50595628     0.16200
O895        O  0.51871927  0.92419568  0.52497602    -0.26200
C896        C  0.50904363  0.93976560  0.51171062     0.05900
C897        C  0.54050761  0.94873717  0.49946181    -0.31100
O898        O  0.67881077  0.94013379  0.50678543    -0.22900
C899        C  0.69053374  0.92722576  0.52016408    -0.02900
C900        C  0.65762624  0.91362943  0.53216698    -0.17400
H901        H  0.57206483  0.90155238  0.54383421     0.20600
H902        H  0.62359163  0.95796539  0.48769823     0.19000
H903        H  0.54178989  0.96195755  0.48755216     0.18900
H904        H  0.65869678  0.90206392  0.54416933     0.14800
C905        C  0.19785475  0.90518135  0.69199481     0.30300
C906        C  0.22142656  0.88514704  0.69891355    -0.36100
C907        C  0.20390035  0.83867851  0.69571137     0.16200
C908        C  0.16575275  0.81366772  0.68637944     0.22100
C909        C  0.14164547  0.83330610  0.67978648    -0.34200
C910        C  0.15930097  0.87965878  0.68292847     0.16200
O911        O  0.21032651  0.94890995  0.69218664    -0.26200
C912        C  0.17931597  0.95131895  0.68307113     0.05900
C913        C  0.14650587  0.90896209  0.67722124    -0.31100
O914        O  0.15731597  0.77187214  0.68387048    -0.22900
C915        C  0.19022642  0.76979342  0.69179670    -0.02900
C916        C  0.22008141  0.81024850  0.69950038    -0.17400
H917        H  0.25228339  0.90478130  0.70576499     0.20600
H918        H  0.11226617  0.81424195  0.67217718     0.19000
H919        H  0.11817408  0.90095484  0.66932582     0.18900
H920        H  0.25033433  0.81809348  0.70627936     0.14800
C921        C  0.04374392  0.01236218  0.60319431     0.30300
C922        C  0.06330716  0.04133720  0.61644340    -0.36100
C923        C  0.09629466  0.03640826  0.62500807     0.16200
C924        C  0.10914820  0.00517849  0.62077079     0.22100
C925        C  0.08968414  0.97626279  0.60757393    -0.34200
C926        C  0.05641501  0.98084464  0.59915658     0.16200
O927        O  0.01237564  0.01114671  0.59344314    -0.26200
C928        C  0.00457335  0.97805839  0.58313147     0.05900
C929        C  0.03074080  0.95777502  0.58625499    -0.31100
O930        O  0.13732889  0.00331516  0.63117847    -0.22900
C931        C  0.14293116  0.03377568  0.64231101    -0.02900
C932        C  0.11847015  0.05579447  0.63899406    -0.17400
H933        H  0.05285319  0.06537284  0.62002695     0.20600
H934        H  0.09888595  0.95100407  0.60438071     0.19000
H935        H  0.03150714  0.93066907  0.57969874     0.18900
H936        H  0.11441750  0.07954327  0.64647698     0.14800
C937        C  0.20505266  0.35042008  0.70052304     0.30300
C938        C  0.21058517  0.32211351  0.71132332    -0.36100
C939        C  0.20849893  0.28325106  0.70481857     0.16200
C940        C  0.20135142  0.27244317  0.68876036     0.22100
C941        C  0.19463647  0.30043740  0.67790746    -0.34200
C942        C  0.19680827  0.33973222  0.68445912     0.16200
O943        O  0.20884844  0.38987378  0.70404856    -0.26200
C944        C  0.20256283  0.40493831  0.69014823     0.05900
C945        C  0.19447686  0.37502832  0.67748004    -0.31100
O946        O  0.20488562  0.23626074  0.68525176    -0.22900
C947        C  0.21448103  0.22409036  0.69930119    -0.02900
C948        C  0.21639382  0.25195484  0.71185071    -0.17400
H949        H  0.21776993  0.33073128  0.72387517     0.20600
H950        H  0.18974970  0.29303459  0.66521784     0.19000
H951        H  0.18915236  0.37936746  0.66496095     0.18900
H952        H  0.22450769  0.25074879  0.72432068     0.14800
C953        C  0.39620258  0.21368135  0.77132125     0.30300
C954        C  0.38610871  0.23408706  0.75861468    -0.36100
C955        C  0.35667027  0.20460664  0.74691615     0.16200
C956        C  0.33826763  0.15808081  0.74752850     0.22100
C957        C  0.34924299  0.13759428  0.76014547    -0.34200
C958        C  0.37879602  0.16724472  0.77197408     0.16200
O959        O  0.42121924  0.23502938  0.78387223    -0.26200
C960        C  0.42047756  0.20217703  0.79276621     0.05900
C961        C  0.39471083  0.15910483  0.78594802    -0.31100
O962        O  0.30833899  0.13698413  0.73593534    -0.22900
C963        C  0.30760275  0.17057846  0.72785203    -0.02900
C964        C  0.33774453  0.21338857  0.73410413    -0.17400
H965        H  0.39914726  0.27041061  0.75816419     0.20600
H966        H  0.33460683  0.10109148  0.76096254     0.19000
H967        H  0.38809467  0.12666679  0.79070565     0.18900
H968        H  0.34368244  0.24639151  0.73027313     0.14800
C969        C  0.55314437  0.02577075  0.36945206     0.30300
C970        C  0.56156036  0.99880666  0.38004676    -0.36100
C971        C  0.55167884  0.95608185  0.37429554     0.16200
C972        C  0.53489272  0.94066258  0.35914706     0.22100
C973        C  0.52584180  0.96755000  0.34858009    -0.34200
C974        C  0.53564324  0.01046614  0.35434739     0.16200
O975        O  0.55980940  0.06673981  0.37245187    -0.26200
C976        C  0.54607143  0.07796745  0.35916417     0.05900
C977        C  0.53080009  0.04431659  0.34743494    -0.31100
O978        O  0.53154715  0.90086188  0.35594617    -0.22900
C979        C  0.54659109  0.89080134  0.36924187    -0.02900
C980        C  0.55858861  0.92382033  0.38112336    -0.17400
H981        H  0.57547743  0.01059497  0.39188867     0.20600
H982        H  0.51283931  0.95617639  0.33661967     0.19000
H983        H  0.51750692  0.04453837  0.33566448     0.18900
H984        H  0.57232402  0.92520093  0.39294216     0.14800
C985        C  0.68272571  0.86121915  0.41328357     0.30300
C986        C  0.71539921  0.89508999  0.42319976    -0.36100
C987        C  0.73054519  0.88007773  0.43619717     0.16200
C988        C  0.71475782  0.83470273  0.43932983     0.22100
C989        C  0.68193786  0.80054588  0.42928621    -0.34200
C990        C  0.66673386  0.81568757  0.41614527     0.16200
O991        O  0.66236456  0.86823432  0.40110668    -0.26200
C992        C  0.63274360  0.82682386  0.39577479     0.05900
C993        C  0.63414786  0.79255143  0.40465993    -0.31100
O994        O  0.73257696  0.82867515  0.45262227    -0.22900
C995        C  0.75985774  0.87082603  0.45804549    -0.02900
C996        C  0.75996549  0.90400025  0.44820166    -0.17400
H997        H  0.72739548  0.93081263  0.42113090     0.20600
H998        H  0.66853524  0.76475776  0.43173277     0.19000
H999        H  0.61258373  0.75611254  0.40345328     0.18900
H1000       H  0.77837838  0.94051856  0.44984984     0.14800
C1001       C  0.51901192  0.49595567  0.36385444     0.30300
C1002       C  0.53260798  0.53946774  0.37015854    -0.36100
C1003       C  0.51095571  0.56216120  0.36367604     0.16200
C1004       C  0.47782011  0.54278867  0.35204148     0.22100
C1005       C  0.46385220  0.49936210  0.34596830    -0.34200
C1006       C  0.48600072  0.47727107  0.35215278     0.16200
O1007       O  0.53641683  0.46964669  0.36732650    -0.26200
C1008       C  0.51443500  0.43400970  0.35757001     0.05900
C1009       C  0.48273239  0.43713316  0.34789429    -0.31100
O1010       O  0.46539541  0.57106178  0.34636617    -0.22900
C1011       C  0.49073479  0.60961469  0.35430756    -0.02900
C1012       C  0.51951776  0.60591800  0.36545981    -0.17400
H1013       H  0.55953123  0.55529744  0.37894350     0.20600
H1014       H  0.43901449  0.48477049  0.33644025     0.19000
H1015       H  0.46070195  0.41338482  0.33889473     0.18900
H1016       H  0.54559051  0.63245212  0.37276760     0.14800
C1017       C  0.42202028  0.70033322  0.29285376     0.30300
C1018       C  0.39520546  0.71286244  0.28358313    -0.36100
C1019       C  0.37483578  0.68656665  0.26974904     0.16200
C1020       C  0.38088873  0.65078844  0.26531782     0.22100
C1021       C  0.40833564  0.63901606  0.27432560    -0.34200
C1022       C  0.42817251  0.66487152  0.28814553     0.16200
O1023       O  0.44047154  0.71688343  0.30706645    -0.26200
C1024       C  0.45846343  0.69141549  0.31154456     0.05900
C1025       C  0.45224772  0.65906506  0.29997761    -0.31100
O1026       O  0.35672111  0.62885579  0.25262775    -0.22900
C1027       C  0.33478891  0.65077159  0.24867283    -0.02900
C1028       C  0.34489162  0.68722354  0.25887978    -0.17400
H1029       H  0.38908378  0.73990554  0.28725250     0.20600
H1030       H  0.41236663  0.61032518  0.27114116     0.19000
H1031       H  0.46208571  0.63327956  0.30042737     0.18900
H1032       H  0.33111793  0.70991577  0.25861241     0.14800
C1033       C  0.79577341  0.00843747  0.10477719     0.30300
C1034       C  0.80400184  0.03988527  0.11719946    -0.36100
C1035       C  0.77002884  0.02567555  0.12912506     0.16200
C1036       C  0.73119114  0.98353791  0.12869229     0.22100
C1037       C  0.72303210  0.95247240  0.11641280    -0.34200
C1038       C  0.75649383  0.96659151  0.10460512     0.16200
O1039       O  0.82238098  0.01390790  0.09234628    -0.26200
C1040       C  0.79940502  0.97499965  0.08422267     0.05900
C1041       C  0.75821785  0.94455462  0.09134467    -0.31100
O1042       O  0.70328064  0.97702816  0.14055650    -0.22900
C1043       C  0.72371802  0.01530271  0.14900616    -0.02900
C1044       C  0.76579992  0.04710740  0.14244191    -0.17400
H1045       H  0.83444282  0.07301425  0.11748803     0.20600
H1046       H  0.69232511  0.91954341  0.11602733     0.19000
H1047       H  0.73324593  0.91076122  0.08738621     0.18900
H1048       H  0.78913453  0.08125290  0.14652507     0.14800
C1049       C  0.52226987  0.89215030  0.17405759     0.30300
C1050       C  0.49122901  0.85102332  0.16688573    -0.36100
C1051       C  0.45188845  0.82354422  0.17567783     0.16200
C1052       C  0.44322759  0.83558191  0.19050177     0.22100
C1053       C  0.47426619  0.87726947  0.19762482    -0.34200
C1054       C  0.51405833  0.90490498  0.18880465     0.16200
O1055       O  0.56241380  0.92126091  0.16830030    -0.26200
C1056       C  0.58081067  0.95360494  0.17937936     0.05900
C1057       C  0.55196970  0.94538748  0.19244248    -0.31100
O1058       O  0.40453987  0.80361634  0.19671691    -0.22900
C1059       C  0.38873617  0.77096489  0.18568404    -0.02900
C1060       C  0.41674207  0.78165041  0.17235123    -0.17400
H1061       H  0.49789444  0.84062414  0.15542117     0.20600
H1062       H  0.46832031  0.88694627  0.20933548     0.19000
H1063       H  0.55856047  0.96498322  0.20332208     0.18900
H1064       H  0.41195125  0.76133052  0.16176340     0.14800
C1065       C  0.67859075  0.18946171  0.25327510     0.30300
C1066       C  0.68470512  0.22283060  0.26437041    -0.36100
C1067       C  0.65056386  0.20996410  0.27585530     0.16200
C1068       C  0.61274238  0.16706231  0.27652885     0.22100
C1069       C  0.60656632  0.13335107  0.26530335    -0.34200
C1070       C  0.64104837  0.14639136  0.25365138     0.16200
O1071       O  0.70650237  0.19511532  0.24150702    -0.26200
C1072       C  0.68732234  0.15533532  0.23393800     0.05900
C1073       C  0.64614864  0.12338293  0.24101362    -0.31100
O1074       O  0.58536213  0.16289778  0.28852640    -0.22900
C1075       C  0.60629523  0.20374894  0.29549219    -0.02900
C1076       C  0.64685534  0.23423439  0.28803798    -0.17400
H1077       H  0.71415116  0.25668863  0.26402962     0.20600
H1078       H  0.57706808  0.09954622  0.26561550     0.19000
H1079       H  0.62315911  0.08870164  0.23737078     0.18900
H1080       H  0.67041329  0.26923459  0.29121565     0.14800
C1081       C  0.87050809  0.29454556  0.19861359     0.30300
C1082       C  0.89962105  0.33866858  0.20405303    -0.36100
C1083       C  0.94190122  0.36193575  0.19649589     0.16200
C1084       C  0.95486475  0.34362885  0.18422045     0.22100
C1085       C  0.92522177  0.29932156  0.17859552    -0.34200
C1086       C  0.88277523  0.27559392  0.18636666     0.16200
O1087       O  0.83070032  0.26609454  0.20481190    -0.26200
C1088       C  0.81655563  0.22792236  0.19653192     0.05900
C1089       C  0.84770975  0.23189350  0.18479097    -0.31100
O1090       O  0.99712841  0.37144058  0.17943129    -0.22900
C1091       C  0.01097299  0.40762656  0.18889875    -0.02900
C1092       C  0.97789995  0.40340823  0.19966649    -0.17400
H1093       H  0.89048148  0.35333424  0.21387813     0.20600
H1094       H  0.93501332  0.28398635  0.16919506     0.19000
H1095       H  0.84584612  0.20617661  0.17669153     0.18900
H1096       H  0.98031372  0.42730428  0.20873007     0.14800
C1097       C  0.79906597  0.29982154  0.35150260     0.30300
C1098       C  0.84197142  0.32372614  0.34428225    -0.36100
C1099       C  0.87305218  0.30966999  0.34837663     0.16200
C1100       C  0.86289162  0.27416911  0.35873173     0.22100
C1101       C  0.81987186  0.25045236  0.36618301    -0.34200
C1102       C  0.78864554  0.26487593  0.36219390     0.16200
O1103       O  0.76455915  0.30645779  0.34880302    -0.26200
C1104       C  0.73128648  0.27567906  0.35795741     0.05900
C1105       C  0.74439220  0.24897192  0.36668754    -0.31100
O1106       O  0.89651913  0.26505847  0.35984365    -0.22900
C1107       C  0.92858266  0.29527791  0.35004963    -0.02900
C1108       C  0.91571923  0.32429485  0.34287610    -0.17400
H1109       H  0.85025780  0.35086228  0.33576232     0.20600
H1110       H  0.81104010  0.22219457  0.37423005     0.19000
H1111       H  0.72394251  0.22115036  0.37477336     0.18900
H1112       H  0.93420706  0.35145455  0.33434609     0.14800
C1113       C  0.09146904  0.40715520  0.26402821     0.30300
C1114       C  0.05138030  0.37548330  0.27170272    -0.36100
C1115       C  0.05671133  0.35813102  0.28623677     0.16200
C1116       C  0.09859515  0.37066546  0.29286560     0.22100
C1117       C  0.13906789  0.40177379  0.28493348    -0.34200
C1118       C  0.13371516  0.41942815  0.27031437     0.16200
O1119       O  0.09374787  0.43002380  0.25098999    -0.26200
C1120       C  0.13802396  0.45722246  0.24867186     0.05900
C1121       C  0.16478050  0.45193607  0.26023039    -0.31100
O1122       O  0.09503626  0.35329474  0.30738414    -0.22900
C1123       C  0.05025355  0.32951555  0.31001298    -0.02900
C1124       C  0.02501384  0.33099985  0.29709989    -0.17400
H1125       H  0.01819758  0.36649880  0.26699872     0.20600
H1126       H  0.17223318  0.41287785  0.29010864     0.19000
H1127       H  0.20147594  0.47052353  0.26135736     0.18900
H1128       H  0.98850258  0.31629721  0.29617238     0.14800
C1129       C  0.94416220  0.08476446  0.44075686     0.30300
C1130       C  0.94083913  0.11641661  0.43072709    -0.36100
C1131       C  0.96667190  0.12806729  0.41652038     0.16200
C1132       C  0.99325306  0.10928937  0.41255193     0.22100
C1133       C  0.99653139  0.07792408  0.42250564    -0.34200
C1134       C  0.97157865  0.06701048  0.43670697     0.16200
O1135       O  0.92386306  0.06938151  0.45472966    -0.26200
C1136       C  0.93921405  0.04209969  0.45964963     0.05900
C1137       C  0.96918428  0.03961607  0.44895303    -0.31100
O1138       O  0.01758213  0.12730059  0.39960065    -0.22900
C1139       C  0.00698768  0.15835194  0.39500025    -0.02900
C1140       C  0.97496571  0.16016981  0.40501400    -0.17400
H1141       H  0.92062479  0.13173644  0.43397628     0.20600
H1142       H  0.01841710  0.06421047  0.41962479     0.19000
H1143       H  0.98618656  0.01991289  0.44995961     0.18900
H1144       H  0.96271108  0.18410731  0.40466192     0.14800
C1145       C  0.28926688  0.24745967  0.36858039     0.30300
C1146       C  0.25273211  0.23589549  0.37891377    -0.36100
C1147       C  0.21819666  0.24289777  0.37302054     0.16200
C1148       C  0.21911482  0.26018731  0.35798107     0.22100
C1149       C  0.25641120  0.27267413  0.34764113    -0.34200
C1150       C  0.29127005  0.26552955  0.35356392     0.16200
O1151       O  0.32395303  0.24153085  0.37157797    -0.26200
C1152       C  0.34903219  0.25604858  0.35838260     0.05900
C1153       C  0.33067231  0.27180868  0.34673147    -0.31100
O1154       O  0.18134196  0.26113401  0.35476730    -0.22900
C1155       C  0.15608050  0.24411455  0.36796536    -0.02900
C1156       C  0.17798465  0.23286213  0.37973216    -0.17400
H1157       H  0.25081993  0.22127743  0.39062656     0.20600
H1158       H  0.25763561  0.28589037  0.33572714     0.19000
H1159       H  0.34394505  0.28506285  0.33492552     0.18900
H1160       H  0.16601984  0.21839463  0.39150367     0.14800
C1161       C  0.60422123  0.87585266  0.02209424     0.30300
C1162       C  0.55994234  0.84962181  0.02789909    -0.36100
C1163       C  0.53045294  0.86610673  0.02461429     0.16200
C1164       C  0.54326390  0.90580646  0.01625254     0.22100
C1165       C  0.58747916  0.93150647  0.00996411    -0.34200
C1166       C  0.61718766  0.91484864  0.01321806     0.16200
O1167       O  0.63816082  0.86868346  0.02508251    -0.26200
C1168       C  0.67340832  0.90316865  0.01788191     0.05900
C1169       C  0.66241153  0.93277387  0.01012041    -0.31100
O1170       O  0.51122007  0.91717979  0.01630530    -0.22900
C1171       C  0.47764553  0.88413541  0.02480618    -0.02900
C1172       C  0.48772051  0.85111081  0.02992919    -0.17400
H1173       H  0.54977165  0.81956987  0.03515281     0.20600
H1174       H  0.59854839  0.96323481  0.00365972     0.19000
H1175       H  0.68492348  0.96403129  0.00384090     0.18900
H1176       H  0.46759713  0.82142281  0.03730577     0.14800
C1177       C  0.31721400  0.75928407  0.11089794     0.30300
C1178       C  0.35705351  0.78666157  0.10229720    -0.36100
C1179       C  0.35246015  0.80855422  0.08884363     0.16200
C1180       C  0.31154238  0.80380238  0.08390303     0.22100
C1181       C  0.27139820  0.77669737  0.09271749    -0.34200
C1182       C  0.27603978  0.75489418  0.10639933     0.16200
O1183       O  0.31406214  0.73500441  0.12362489    -0.26200
C1184       C  0.27034955  0.71487260  0.12758586     0.05900
C1185       C  0.24488671  0.72606383  0.11734671    -0.31100
O1186       O  0.31533640  0.82532359  0.07021144    -0.22900
C1187       C  0.35937124  0.84403182  0.06646310    -0.02900
C1188       C  0.38387979  0.83511763  0.07789071    -0.17400
H1189       H  0.38938418  0.79002984  0.10570721     0.20600
H1190       H  0.23884302  0.77225858  0.08903096     0.19000
H1191       H  0.20875545  0.71411263  0.11776688     0.18900
H1192       H  0.41961722  0.84533614  0.07800721     0.14800
C1193       C  0.40183191  0.06006890  0.96318270     0.30300
C1194       C  0.39617050  0.08682773  0.95172245    -0.36100
C1195       C  0.42830346  0.10367034  0.93942504     0.16200
C1196       C  0.46399026  0.09519879  0.93839171     0.22100
C1197       C  0.46956398  0.06799983  0.94991788    -0.34200
C1198       C  0.43707580  0.05091558  0.96232454     0.16200
O1199       O  0.37410510  0.03929623  0.97517002    -0.26200
C1200       C  0.39126884  0.01613163  0.98228393     0.05900
C1201       C  0.43088139  0.02232292  0.97485560    -0.31100
O1202       O  0.49010483  0.11508325  0.92576621    -0.22900
C1203       C  0.47041250  0.13615910  0.91872862    -0.02900
C1204       C  0.43182168  0.12997321  0.92670848    -0.17400
H1205       H  0.36818775  0.09355051  0.95224809     0.20600
H1206       H  0.49691949  0.06039692  0.94919187     0.19000
H1207       H  0.45074745  0.00631788  0.97768421     0.18900
H1208       H  0.40973199  0.14334537  0.92364582     0.14800
C1209       C  0.10979858  0.91253696  0.02350949     0.30300
C1210       C  0.14257165  0.90450241  0.03086360    -0.36100
C1211       C  0.18097426  0.91419056  0.02151338     0.16200
C1212       C  0.18645146  0.93054867  0.00605058     0.22100
C1213       C  0.15393434  0.93845620  0.99873103    -0.34200
C1214       C  0.11592661  0.92903402  0.00804474     0.16200
O1215       O  0.07172639  0.90705234  0.03002320    -0.26200
C1216       C  0.05366259  0.92059600  0.01855194     0.05900
C1217       C  0.07985890  0.93454525  0.00466042    -0.31100
O1218       O  0.22556721  0.93963277  0.99972190    -0.22900
C1219       C  0.24594176  0.92895308  0.01116424    -0.02900
C1220       C  0.21961162  0.91266390  0.02504168    -0.17400
H1221       H  0.13881774  0.89236970  0.04307889     0.20600
H1222       H  0.15847174  0.95201593  0.98669500     0.19000
H1223       H  0.07335327  0.94723231  0.99364727     0.18900
H1224       H  0.22854731  0.90339627  0.03632059     0.14800
C1225       C  0.35955027  0.50700274  0.59392584     0.30300
C1226       C  0.36755927  0.53815726  0.60619230    -0.36100
C1227       C  0.32930647  0.53159486  0.61472244     0.16200
C1228       C  0.28596687  0.49635448  0.61162454     0.22100
C1229       C  0.27792754  0.46493840  0.59925285    -0.34200
C1230       C  0.31643489  0.47180986  0.59054043     0.16200
O1231       O  0.39010908  0.50983448  0.58365399    -0.26200
C1232       C  0.36686487  0.47624164  0.57332288     0.05900
C1233       C  0.32064130  0.45086588  0.57713843    -0.31100
O1234       O  0.25526001  0.49714209  0.62120442    -0.22900
C1235       C  0.27945561  0.53370494  0.63036485    -0.02900
C1236       C  0.32564444  0.55634420  0.62679028    -0.17400
H1237       H  0.40122821  0.56647718  0.60858796     0.20600
H1238       H  0.24401762  0.43779765  0.59638241     0.19000
H1239       H  0.29362336  0.42363866  0.57034307     0.18900
H1240       H  0.35273657  0.58639420  0.63244307     0.14800
C1241       C  0.61756855  0.69602961  0.53143141     0.30300
C1242       C  0.57611049  0.67573034  0.53964703    -0.36100
C1243       C  0.54557262  0.63035653  0.53579969     0.16200
C1244       C  0.55476587  0.60606470  0.52467412     0.22100
C1245       C  0.59635264  0.62668163  0.51624283    -0.34200
C1246       C  0.62715946  0.67248517  0.52007207     0.16200
O1247       O  0.65146497  0.73763944  0.53372033    -0.26200
C1248       C  0.68348302  0.74138809  0.52365119     0.05900
C1249       C  0.67026027  0.70193473  0.51474794    -0.31100
O1250       O  0.52161353  0.56310870  0.52368747    -0.22900
C1251       C  0.49091805  0.56007476  0.53437797    -0.02900
C1252       C  0.50419994  0.60137240  0.54203740    -0.17400
H1253       H  0.56853342  0.69384055  0.54868057     0.20600
H1254       H  0.60446605  0.60814473  0.50756393     0.19000
H1255       H  0.68990626  0.69557035  0.50597505     0.18900
H1256       H  0.48658871  0.60932931  0.55114515     0.14800
C1257       C  0.19233443  0.23952485  0.52371842     0.30300
C1258       C  0.15689262  0.21079313  0.53416440    -0.36100
C1259       C  0.12172923  0.17062012  0.52735714     0.16200
C1260       C  0.12167599  0.15954701  0.51143758     0.22100
C1261       C  0.15635898  0.18851234  0.50100686    -0.34200
C1262       C  0.19114311  0.22848793  0.50775980     0.16200
O1263       O  0.23073169  0.27673999  0.52762485    -0.26200
C1264       C  0.25423252  0.28942012  0.51393310     0.05900
C1265       C  0.23049475  0.26093570  0.50118025    -0.31100
O1266       O  0.08655397  0.11990639  0.50762883    -0.22900
C1267       C  0.06327089  0.10537312  0.52121578    -0.02900
C1268       C  0.08339981  0.13549447  0.53392489    -0.17400
H1269       H  0.15728868  0.21853115  0.54675889     0.20600
H1270       H  0.15680212  0.17990780  0.48854867     0.19000
H1271       H  0.24147244  0.26230435  0.48891670     0.18900
H1272       H  0.07162782  0.13181562  0.54618524     0.14800
C1273       C  0.44241280  0.30150809  0.44279414     0.30300
C1274       C  0.41764547  0.28212725  0.45681409    -0.36100
C1275       C  0.41786877  0.31260471  0.46811637     0.16200
C1276       C  0.44040420  0.35908695  0.46582804     0.22100
C1277       C  0.46616408  0.37866922  0.45186209    -0.34200
C1278       C  0.46632441  0.34805289  0.44055486     0.16200
O1279       O  0.44580105  0.27900620  0.43055427    -0.26200
C1280       C  0.47283455  0.31145038  0.42037595     0.05900
C1281       C  0.48682938  0.35516447  0.42593866    -0.31100
O1282       O  0.43161859  0.38046810  0.47731592    -0.22900
C1283       C  0.40319903  0.34706859  0.48705490    -0.02900
C1284       C  0.39436167  0.30434040  0.48198832    -0.17400
H1285       H  0.39855390  0.24566735  0.45861716     0.20600
H1286       H  0.48376097  0.41499835  0.44975656     0.19000
H1287       H  0.50862678  0.38729658  0.42002730     0.18900
H1288       H  0.37127701  0.27143516  0.48716861     0.14800
C1289       C  0.65268092  0.42905465  0.77774160     0.30300
C1290       C  0.69067795  0.45263819  0.76784666    -0.36100
C1291       C  0.68424858  0.47217306  0.75405228     0.16200
C1292       C  0.64344516  0.46924038  0.75006941     0.22100
C1293       C  0.60534351  0.44634256  0.76023889    -0.34200
C1294       C  0.61170416  0.42642816  0.77415114     0.16200
O1295       O  0.65064418  0.40548995  0.79058533    -0.26200
C1296       C  0.60781025  0.38740823  0.79549353     0.05900
C1297       C  0.58200583  0.39965125  0.78582447    -0.31100
O1298       O  0.64511695  0.48807611  0.73593310    -0.22900
C1299       C  0.68766574  0.50304239  0.73089098    -0.02900
C1300       C  0.71332768  0.49441373  0.74192741    -0.17400
H1301       H  0.72274157  0.45430355  0.77043805     0.20600
H1302       H  0.57276732  0.44303186  0.75727994     0.19000
H1303       H  0.54622251  0.38887224  0.78687616     0.18900
H1304       H  0.74847560  0.50267247  0.74119669     0.14800
C1305       C  0.95268946  0.57900362  0.68252756     0.30300
C1306       C  0.92380587  0.59457748  0.67679645    -0.36100
C1307       C  0.87917483  0.57238357  0.68294314     0.16200
C1308       C  0.86432018  0.53729304  0.69387040     0.22100
C1309       C  0.89287392  0.52159024  0.69949967    -0.34200
C1310       C  0.93726561  0.54386401  0.69348003     0.16200
O1311       O  0.99627696  0.59596554  0.67905392    -0.26200
C1312       C  0.00868642  0.57145938  0.68803211     0.05900
C1313       C  0.97324056  0.53850523  0.69717525    -0.31100
O1314       O  0.82264298  0.52315698  0.69882971    -0.22900
C1315       C  0.80983036  0.54917387  0.69103884    -0.02900
C1316       C  0.84380539  0.58052226  0.68087220    -0.17400
H1317       H  0.93563495  0.62275866  0.66848627     0.20600
H1318       H  0.88161946  0.49473759  0.70835204     0.19000
H1319       H  0.97409286  0.51452323  0.70554370     0.18900
H1320       H  0.84358156  0.60701348  0.67371321     0.14800
C1321       C  0.44321058  0.58870156  0.67597845     0.30300
C1322       C  0.47709731  0.59605083  0.66487696    -0.36100
C1323       C  0.51251052  0.59005817  0.67058618     0.16200
C1324       C  0.51470705  0.57761637  0.68615543     0.22100
C1325       C  0.47997192  0.56906875  0.69722577    -0.34200
C1326       C  0.44429938  0.57510775  0.69149641     0.16200
O1327       O  0.40886464  0.59551419  0.67335889    -0.26200
C1328       C  0.38709967  0.58586612  0.68729869     0.05900
C1329       C  0.40724727  0.57242724  0.69905210    -0.31100
O1330       O  0.55324640  0.57809950  0.68917615    -0.22900
C1331       C  0.57592768  0.59104012  0.67533245    -0.02900
C1332       C  0.55159296  0.59820113  0.66331776    -0.17400
H1333       H  0.47674344  0.60736635  0.65276796     0.20600
H1334       H  0.48150458  0.56002494  0.70956002     0.19000
H1335       H  0.39694361  0.56345370  0.71141422     0.18900
H1336       H  0.56182651  0.60975136  0.65113204     0.14800
C1337       C  0.77590444  0.78109507  0.60753684     0.30300
C1338       C  0.74594131  0.77082814  0.62043436    -0.36100
C1339       C  0.74446420  0.73902615  0.63147858     0.16200
C1340       C  0.77051612  0.71843025  0.63003470     0.22100
C1341       C  0.80138784  0.72950927  0.61724422    -0.34200
C1342       C  0.80293903  0.76152285  0.60613436     0.16200
O1343       O  0.78064901  0.80799066  0.59540730    -0.26200
C1344       C  0.81150640  0.80618845  0.58610557     0.05900
C1345       C  0.82686545  0.77799765  0.59220466    -0.31100
O1346       O  0.75994936  0.68621332  0.64092546    -0.22900
C1347       C  0.72660511  0.68625035  0.64939533    -0.02900
C1348       C  0.71638748  0.71912611  0.64414366    -0.17400
H1349       H  0.72403657  0.78539619  0.62147478     0.20600
H1350       H  0.82151382  0.71312874  0.61573028     0.19000
H1351       H  0.85107261  0.76988627  0.58691829     0.18900
H1352       H  0.69017602  0.72578871  0.64842691     0.14800
C1353       C  0.29341019  0.01055025  0.85331916     0.30300
C1354       C  0.26144229  0.96918332  0.84613013    -0.36100
C1355       C  0.22293207  0.94055863  0.85544611     0.16200
C1356       C  0.21648823  0.95243086  0.87061173     0.22100
C1357       C  0.24789198  0.99359681  0.87767974    -0.34200
C1358       C  0.28623379  0.02172342  0.86850844     0.16200
O1359       O  0.33249285  0.04218905  0.84713398    -0.26200
C1360       C  0.35010505  0.07375059  0.85858361     0.05900
C1361       C  0.32265008  0.06265994  0.87208949    -0.31100
O1362       O  0.17826023  0.92167085  0.87716874    -0.22900
C1363       C  0.15931913  0.88902668  0.86621722    -0.02900
C1364       C  0.18574553  0.89883053  0.85237140    -0.17400
H1365       H  0.26638450  0.95986151  0.83421591     0.20600
H1366       H  0.24283305  0.00295762  0.88957847     0.19000
H1367       H  0.32889105  0.08187767  0.88306032     0.18900
H1368       H  0.17801915  0.87909377  0.84147621     0.14800
C1369       C  0.97067702  0.87376415  0.93895515     0.30300
C1370       C  0.00195534  0.89300679  0.92649970    -0.36100
C1371       C  0.00023721  0.86297838  0.91478856     0.16200
C1372       C  0.97055300  0.81675688  0.91522557     0.22100
C1373       C  0.93808080  0.79732132  0.92763255    -0.34200
C1374       C  0.93939958  0.82778764  0.93940728     0.16200
O1375       O  0.96723992  0.89616548  0.95117586    -0.26200
C1376       C  0.93288620  0.86454565  0.95964660     0.05900
C1377       C  0.91402911  0.82118962  0.95293720    -0.31100
O1378       O  0.97895753  0.79512650  0.90366702    -0.22900
C1379       C  0.01442654  0.82837233  0.89582588    -0.02900
C1380       C  0.02777441  0.87121501  0.90210752    -0.17400
H1381       H  0.02670601  0.92897965  0.92613384     0.20600
H1382       H  0.91433030  0.76113733  0.92827730     0.19000
H1383       H  0.88593257  0.78965099  0.95738947     0.18900
H1384       H  0.05527827  0.90416361  0.89848641     0.14800
C1385       C  0.80311908  0.47473410  0.85659168     0.30300
C1386       C  0.84878267  0.49111415  0.85259352    -0.36100
C1387       C  0.87879413  0.53700105  0.85597384     0.16200
C1388       C  0.86509754  0.56522131  0.86278155     0.22100
C1389       C  0.81947072  0.54844701  0.86725437    -0.34200
C1390       C  0.78928552  0.50226692  0.86390151     0.16200
O1391       O  0.76898776  0.43376203  0.85339879    -0.26200
C1392       C  0.73263604  0.43457427  0.85890201     0.05900
C1393       C  0.74322940  0.47623718  0.86571026    -0.31100
O1394       O  0.89795138  0.60825348  0.86291212    -0.22900
C1395       C  0.93305483  0.60738005  0.85612077    -0.02900
C1396       C  0.92310662  0.56367630  0.85189444    -0.17400
H1397       H  0.85981893  0.47005418  0.84658273     0.20600
H1398       H  0.80794425  0.57031185  0.87228707     0.19000
H1399       H  0.72018609  0.48623659  0.87078637     0.18900
H1400       H  0.94433188  0.55335763  0.84558178     0.14800
C1401       C  0.09543008  0.69228699  0.79592884     0.30300
C1402       C  0.13495036  0.70571890  0.78675086    -0.36100
C1403       C  0.12966005  0.67906740  0.77313921     0.16200
C1404       C  0.08852884  0.64163382  0.76904675     0.22100
C1405       C  0.04928604  0.62859529  0.77807135    -0.34200
C1406       C  0.05446282  0.65543162  0.79143246     0.16200
O1407       O  0.09234886  0.71042863  0.80957075    -0.26200
C1408       C  0.04874539  0.68465264  0.81373900     0.05900
C1409       C  0.02369523  0.65059419  0.80262880    -0.31100
O1410       O  0.09106695  0.62089807  0.75614109    -0.22900
C1411       C  0.13430766  0.64542805  0.75170191    -0.02900
C1412       C  0.16007342  0.68220204  0.76179144    -0.17400
H1413       H  0.16748804  0.73445246  0.79006679     0.20600
H1414       H  0.01695761  0.59921287  0.77497404     0.19000
H1415       H  0.98810738  0.62467845  0.80291738     0.18900
H1416       H  0.19590548  0.70719532  0.76095131     0.14800
C1417       C  0.36903870  0.17849800  0.27548542     0.30300
C1418       C  0.34396677  0.18494268  0.26326888    -0.36100
C1419       C  0.32310639  0.14976502  0.25185236     0.16200
C1420       C  0.32687077  0.11120591  0.25251343     0.22100
C1421       C  0.35156510  0.10468668  0.26466328    -0.34200
C1422       C  0.37215189  0.13953151  0.27599597     0.16200
O1423       O  0.39184681  0.20687422  0.28732877    -0.26200
C1424       C  0.40963547  0.18552140  0.29546389     0.05900
C1425       C  0.39814314  0.14342972  0.28893398    -0.31100
O1426       O  0.30396903  0.08202945  0.24107490    -0.22900
C1427       C  0.28473214  0.10151531  0.23275074    -0.02900
C1428       C  0.29569571  0.14410670  0.23892817    -0.17400
H1429       H  0.34082449  0.21511103  0.26273015     0.20600
H1430       H  0.35430256  0.07428437  0.26529206     0.19000
H1431       H  0.40802480  0.11932627  0.29304077     0.18900
H1432       H  0.28401951  0.16685606  0.23491391     0.14800
C1433       C  0.18393076  0.89556753  0.19244552     0.30300
C1434       C  0.17844982  0.86216095  0.18125000    -0.36100
C1435       C  0.18238142  0.82549667  0.18731892     0.16200
C1436       C  0.19083089  0.82201299  0.20329226     0.22100
C1437       C  0.19476802  0.85443096  0.21449032    -0.34200
C1438       C  0.19134534  0.89107006  0.20842260     0.16200
O1439       O  0.18645583  0.93503578  0.18928902    -0.26200
C1440       C  0.19573575  0.95597216  0.20346341     0.05900
C1441       C  0.19852626  0.92969305  0.21576925    -0.31100
O1442       O  0.19747136  0.78761819  0.20622289    -0.22900
C1443       C  0.19293279  0.76827249  0.19199627    -0.02900
C1444       C  0.18292838  0.79001815  0.17977412    -0.17400
H1445       H  0.17371802  0.86562860  0.16860631     0.20600
H1446       H  0.20234473  0.85244038  0.22696686     0.19000
H1447       H  0.20677708  0.93849779  0.22825722     0.18900
H1448       H  0.17861016  0.78197052  0.16712309     0.14800
C1449       C  0.04132415  0.99858679  0.10126358     0.30300
C1450       C  0.05912464  0.98849451  0.11495789    -0.36100
C1451       C  0.08446475  0.02491250  0.12554174     0.16200
C1452       C  0.09204934  0.06814552  0.12264299     0.22100
C1453       C  0.07478370  0.07831642  0.10897173    -0.34200
C1454       C  0.04908954  0.04201403  0.09858336     0.16200
O1455       O  0.01372166  0.96930548  0.09041947    -0.26200
C1456       C  0.00338036  0.99438328  0.08083223     0.05900
C1457       C  0.02483366  0.03990706  0.08531269    -0.31100
O1458       O  0.11456762  0.09665280  0.13428708    -0.22900
C1459       C  0.12203333  0.07193162  0.14499158    -0.02900
C1460       C  0.10390838  0.02672248  0.14015310    -0.17400
H1461       H  0.05237322  0.95437973  0.11746228     0.20600
H1462       H  0.07969960  0.11196680  0.10687703     0.19000
H1463       H  0.02157538  0.06717851  0.07992204     0.18900
H1464       H  0.10362133  0.99893843  0.14662801     0.14800
C1465       C  0.17115095  0.25926746  0.17772701     0.30300
C1466       C  0.15939165  0.28972505  0.17113083    -0.36100
C1467       C  0.17543696  0.33072531  0.17924078     0.16200
C1468       C  0.20167355  0.34167730  0.19291758     0.22100
C1469       C  0.21364339  0.31087139  0.19957747    -0.34200
C1470       C  0.19713865  0.26921420  0.19142662     0.16200
O1471       O  0.15917085  0.21903372  0.17192577    -0.26200
C1472       C  0.17726587  0.20198191  0.18193633     0.05900
C1473       C  0.20155645  0.23188822  0.19439491    -0.31100
O1474       O  0.21272132  0.38252459  0.19838117    -0.22900
C1475       C  0.19293556  0.39721800  0.18800952    -0.02900
C1476       C  0.16942615  0.36628759  0.17590951    -0.17400
H1477       H  0.13887667  0.28184545  0.16040315     0.20600
H1478       H  0.23407318  0.31868797  0.21031872     0.19000
H1479       H  0.22002951  0.22723830  0.20408664     0.18900
H1480       H  0.15065989  0.36960868  0.16600322     0.14800
C1481       C  0.21752505  0.94286424  0.35309961     0.30300
C1482       C  0.24258870  0.97937269  0.36362369    -0.36100
C1483       C  0.28486053  0.01402767  0.35790364     0.16200
C1484       C  0.30121783  0.01272833  0.34288600     0.22100
C1485       C  0.27578959  0.97701589  0.33225938    -0.34200
C1486       C  0.23375274  0.94259084  0.33797301     0.16200
O1487       O  0.17915049  0.90483163  0.35636059    -0.26200
C1488       C  0.17090429  0.87995740  0.34311485     0.05900
C1489       C  0.20348817  0.90246835  0.33121965    -0.31100
O1490       O  0.34232165  0.04727151  0.34023822    -0.22900
C1491       C  0.35254752  0.07147036  0.35366792    -0.02900
C1492       C  0.31796265  0.05258201  0.36507570    -0.17400
H1493       H  0.23071502  0.98001048  0.37560251     0.20600
H1494       H  0.28854762  0.97542568  0.32052969     0.19000
H1495       H  0.20585694  0.89044857  0.31945710     0.18900
H1496       H  0.31761008  0.06506595  0.37696815     0.14800
C1497       C  0.11909999  0.65807687  0.27265002     0.30300
C1498       C  0.08601595  0.65422254  0.28370461    -0.36100
C1499       C  0.10176415  0.68583329  0.29634343     0.16200
C1500       C  0.14692388  0.71866696  0.29794906     0.22100
C1501       C  0.17985414  0.72266361  0.28693349    -0.34200
C1502       C  0.16410118  0.69141656  0.27431743     0.16200
O1503       O  0.11201640  0.63318112  0.25963981    -0.26200
C1504       C  0.15302790  0.65127394  0.25289125     0.05900
C1505       C  0.18661222  0.68754067  0.26154065    -0.31100
O1506       O  0.15400776  0.74624145  0.31001439    -0.22900
C1507       C  0.11296139  0.73130226  0.31639667    -0.02900
C1508       C  0.07899930  0.69348158  0.30836690    -0.17400
H1509       H  0.05041510  0.62902430  0.28235504     0.20600
H1510       H  0.21515822  0.74907658  0.28791288     0.19000
H1511       H  0.22240621  0.70842427  0.25869343     0.18900
H1512       H  0.04265188  0.67592006  0.31042442     0.14800
C1513       C  0.93944801  0.77978866  0.41815059     0.30300
C1514       C  0.90963082  0.77108997  0.43093823    -0.36100
C1515       C  0.92342748  0.80575975  0.44223488     0.16200
C1516       C  0.96380129  0.84651144  0.44112356     0.22100
C1517       C  0.99410590  0.85506053  0.42830316    -0.34200
C1518       C  0.98023641  0.82003242  0.41690866     0.16200
O1519       O  0.93217470  0.75223800  0.40610850    -0.26200
C1520       C  0.96877417  0.77445421  0.39686596     0.05900
C1521       C  0.00010402  0.81708277  0.40301651    -0.31100
O1522       O  0.96845706  0.87478654  0.45283000    -0.22900
C1523       C  0.93047661  0.85149351  0.46142782    -0.02900
C1524       C  0.90154188  0.80832124  0.45539880    -0.17400
H1525       H  0.87744471  0.73965710  0.43186709     0.20600
H1526       H  0.02577408  0.88691365  0.42715917     0.19000
H1527       H  0.03212385  0.84253426  0.39788834     0.18900
H1528       H  0.86852389  0.78284684  0.45986849     0.14800
C1529       C  0.77834347  0.50811998  0.35117261     0.30300
C1530       C  0.82376193  0.53520718  0.34613291    -0.36100
C1531       C  0.84572996  0.58097124  0.35097173     0.16200
C1532       C  0.82431846  0.59853587  0.36013312     0.22100
C1533       C  0.77919892  0.57155690  0.36522092    -0.34200
C1534       C  0.75742709  0.52601070  0.36045241     0.16200
O1535       O  0.75133719  0.46439483  0.34821308    -0.26200
C1536       C  0.71290610  0.45432312  0.35583070     0.05900
C1537       C  0.71487333  0.49133960  0.36368494    -0.31100
O1538       O  0.85166527  0.64108725  0.36420323    -0.22900
C1539       C  0.89143617  0.65149942  0.35760137    -0.02900
C1540       C  0.88968923  0.61532706  0.34908831    -0.17400
H1541       H  0.84094935  0.52141212  0.33916802     0.20600
H1542       H  0.76255268  0.58495112  0.37268925     0.19000
H1543       H  0.68865542  0.49249794  0.37071712     0.18900
H1544       H  0.91735878  0.61352136  0.34336397     0.14800
C1545       C  0.17722280  0.24619705  0.01913940     0.30300
C1546       C  0.15891259  0.20253257  0.01238828    -0.36100
C1547       C  0.11353054  0.17114079  0.01648262     0.16200
C1548       C  0.08806937  0.18217367  0.02646598     0.22100
C1549       C  0.10592766  0.22589021  0.03287422    -0.34200
C1550       C  0.15112711  0.25700297  0.02885238     0.16200
O1551       O  0.22005500  0.27949969  0.01828202    -0.26200
C1552       C  0.22134303  0.31199833  0.02761280     0.05900
C1553       C  0.17899661  0.29981677  0.03425036    -0.31100
O1554       O  0.04737623  0.14735618  0.02944051    -0.22900
C1555       C  0.04625158  0.11338311  0.02116576    -0.02900
C1556       C  0.08647246  0.12614907  0.01280843    -0.17400
H1557       H  0.17911305  0.19319437  0.00497300     0.20600
H1558       H  0.08643359  0.23456319  0.04093314     0.19000
H1559       H  0.17015922  0.31866684  0.04253532     0.18900
H1560       H  0.09479391  0.10517467  0.00539748     0.14800
C1561       C  0.26656980  0.47142822  0.11294091     0.30300
C1562       C  0.25959955  0.43136074  0.10567998    -0.36100
C1563       C  0.28466672  0.43678465  0.09173612     0.16200
C1564       C  0.31452725  0.47871289  0.08521668     0.22100
C1565       C  0.32258788  0.51908848  0.09278887    -0.34200
C1566       C  0.29748603  0.51364868  0.10685973     0.16200
O1567       O  0.24473002  0.47382385  0.12559334    -0.26200
C1568       C  0.26217587  0.51817694  0.12788552     0.05900
C1569       C  0.29539857  0.54475569  0.11665125    -0.31100
O1570       O  0.32954233  0.47528855  0.07095192    -0.22900
C1571       C  0.30886999  0.43057915  0.06838587    -0.02900
C1572       C  0.28146378  0.40517093  0.08113938    -0.17400
H1573       H  0.23488729  0.39814568  0.11022744     0.20600
H1574       H  0.34525350  0.55225461  0.08771042     0.19000
H1575       H  0.31451525  0.58146979  0.11569943     0.18900
H1576       H  0.25941060  0.36868398  0.08195506     0.14800
C1577       C  0.47680546  0.38227121  0.96595405     0.30300
C1578       C  0.51052895  0.38738763  0.95512474    -0.36100
C1579       C  0.49526948  0.35990065  0.94149932     0.16200
C1580       C  0.44998494  0.32894502  0.93874022     0.22100
C1581       C  0.41610165  0.32394229  0.94962114    -0.34200
C1582       C  0.43137835  0.35184649  0.96327172     0.16200
O1583       O  0.48350809  0.40707821  0.97879683    -0.26200
C1584       C  0.44196021  0.39274072  0.98459876     0.05900
C1585       C  0.40802153  0.35801895  0.97544188    -0.31100
O1586       O  0.44367470  0.30679089  0.92511105    -0.22900
C1587       C  0.48547946  0.32432838  0.91907212    -0.02900
C1588       C  0.51880020  0.35756013  0.92875866    -0.17400
H1589       H  0.54612260  0.41194351  0.95700607     0.20600
H1590       H  0.38036225  0.30059788  0.94745489     0.19000
H1591       H  0.37150883  0.34210323  0.97682575     0.18900
H1592       H  0.55520080  0.37679475  0.92677647     0.14800
C1593       C  0.63018875  0.67291046  0.00994066     0.30300
C1594       C  0.60473608  0.63608822  0.99978133    -0.36100
C1595       C  0.56258222  0.60257988  0.00566466     0.16200
C1596       C  0.54604049  0.60462151  0.02054221     0.22100
C1597       C  0.57117261  0.64233390  0.03063311    -0.34200
C1598       C  0.61381783  0.67613046  0.02473470     0.16200
O1599       O  0.67128870  0.70698838  0.00693798    -0.26200
C1600       C  0.68178598  0.73300490  0.01989315     0.05900
C1601       C  0.64723857  0.71557657  0.03140453    -0.31100
O1602       O  0.50751746  0.56691465  0.02405699    -0.22900
C1603       C  0.49970578  0.54057926  0.01122315    -0.02900
C1604       C  0.53258418  0.56183136  0.99933472    -0.17400
H1605       H  0.61760629  0.63302976  0.98825851     0.20600
H1606       H  0.55909848  0.64444746  0.04242548     0.19000
H1607       H  0.64695186  0.72974193  0.04298445     0.18900
H1608       H  0.53541107  0.54865999  0.98785826     0.14800
C1609       C  0.06062224  0.49347984  0.60527668     0.30300
C1610       C  0.04883958  0.46128228  0.59309907    -0.36100
C1611       C  0.01861432  0.46039965  0.58152546     0.16200
C1612       C  0.00099547  0.48923544  0.58175708     0.22100
C1613       C  0.01365762  0.52240920  0.59385766    -0.34200
C1614       C  0.04406041  0.52325075  0.60557175     0.16200
O1615       O  0.08642150  0.49802801  0.61768475    -0.26200
C1616       C  0.08709404  0.53145021  0.62614354     0.05900
C1617       C  0.06150215  0.54882643  0.61916523    -0.31100
O1618       O  0.97034772  0.47956612  0.57032243    -0.22900
C1619       C  0.96836864  0.44394609  0.56276527    -0.02900
C1620       C  0.99833397  0.43125901  0.56918413    -0.17400
H1621       H  0.06124850  0.43745511  0.59296559     0.20600
H1622       H  0.99969461  0.54490360  0.59439600     0.19000
H1623       H  0.05574408  0.57544867  0.62363711     0.18900
H1624       H  0.00344229  0.40344484  0.56568694     0.14800
C1625       C  0.87022910  0.16240982  0.53619416     0.30300
C1626       C  0.86940490  0.19347950  0.54706535    -0.36100
C1627       C  0.86867014  0.23101124  0.54033601     0.16200
C1628       C  0.86868039  0.23771376  0.52402366     0.22100
C1629       C  0.86841129  0.20600109  0.51312801    -0.34200
C1630       C  0.86910762  0.16832301  0.51986553     0.16200
O1631       O  0.87354870  0.12633826  0.53989062    -0.26200
C1632       C  0.87394698  0.10839221  0.52575683     0.05900
C1633       C  0.87097722  0.13294280  0.51286871    -0.31100
O1634       O  0.87265865  0.27752619  0.52042052    -0.22900
C1635       C  0.87530803  0.29658205  0.53462943    -0.02900
C1636       C  0.87230557  0.26871508  0.54741222    -0.17400
H1637       H  0.87090619  0.18953737  0.55988739     0.20600
H1638       H  0.86929232  0.21117770  0.50030311     0.19000
H1639       H  0.87130837  0.12627370  0.50020553     0.18900
H1640       H  0.87525073  0.27632175  0.56009376     0.14800
C1641       C  0.86460445  0.60016040  0.52414074     0.30300
C1642       C  0.88953501  0.64452323  0.53028941    -0.36100
C1643       C  0.87162453  0.67324413  0.52718327     0.16200
C1644       C  0.83232723  0.65946757  0.51843638     0.22100
C1645       C  0.80697634  0.61500998  0.51262312    -0.34200
C1646       C  0.82455926  0.58630888  0.51589517     0.16200
O1647       O  0.87646521  0.56847134  0.52453676    -0.26200
C1648       C  0.84333300  0.53387615  0.51648648     0.05900
C1649       C  0.80986158  0.54310999  0.51111717    -0.31100
O1650       O  0.82346364  0.69261543  0.51595075    -0.22900
C1651       C  0.85714597  0.72805354  0.52340396    -0.02900
C1652       C  0.88790799  0.71792850  0.53072909    -0.17400
H1653       H  0.92127348  0.65622903  0.53663931     0.20600
H1654       H  0.77635089  0.60391548  0.50562631     0.19000
H1655       H  0.77986504  0.52185119  0.50405254     0.18900
H1656       H  0.91868598  0.74067425  0.53717643     0.14800
C1657       C  0.76490119  0.36939334  0.45809947     0.30300
C1658       C  0.73405746  0.32962763  0.44982046    -0.36100
C1659       C  0.71152737  0.33573906  0.43666693     0.16200
C1660       C  0.71876621  0.37793355  0.43204714     0.22100
C1661       C  0.75048977  0.41748607  0.43993630    -0.34200
C1662       C  0.77303109  0.41139715  0.45292031     0.16200
O1663       O  0.78576541  0.37182230  0.47183365    -0.26200
C1664       C  0.80765730  0.41612426  0.47536055     0.05900
C1665       C  0.80167597  0.44207444  0.46365173    -0.31100
O1666       O  0.69243279  0.37589683  0.42007661    -0.22900
C1667       C  0.66808502  0.33178013  0.41678155    -0.02900
C1668       C  0.67873473  0.30515833  0.42664545    -0.17400
H1669       H  0.72676550  0.29621858  0.45371827     0.20600
H1670       H  0.75601603  0.45068230  0.43655959     0.19000
H1671       H  0.81402929  0.47827049  0.46349071     0.18900
H1672       H  0.66401432  0.26857287  0.42654512     0.14800
C1673       C  0.53210224  0.50085793  0.85260900     0.30300
C1674       C  0.51628342  0.52963277  0.84679102    -0.36100
C1675       C  0.53332415  0.57193205  0.85462059     0.16200
C1676       C  0.56347423  0.58432071  0.86722135     0.22100
C1677       C  0.57930116  0.55605212  0.87289215    -0.34200
C1678       C  0.56259202  0.51438213  0.86514271     0.16200
O1679       O  0.52073481  0.45958413  0.84743760    -0.26200
C1680       C  0.54443345  0.44706380  0.85687674     0.05900
C1681       C  0.57109473  0.48007369  0.86800687    -0.31100
O1682       O  0.57616552  0.62508762  0.87268150    -0.22900
C1683       C  0.55444503  0.64022821  0.86355456    -0.02900
C1684       C  0.52684961  0.60831579  0.85203480    -0.17400
H1685       H  0.49260010  0.51984058  0.83690106     0.20600
H1686       H  0.60330358  0.56605603  0.88269320     0.19000
H1687       H  0.59326187  0.47877145  0.87706937     0.18900
H1688       H  0.50617214  0.61167965  0.84286547     0.14800
C1689       C  0.68185357  0.79485553  0.91228342     0.30300
C1690       C  0.70880449  0.78930102  0.92364866    -0.36100
C1691       C  0.72338579  0.81964695  0.93643521     0.16200
C1692       C  0.71253074  0.85357078  0.93804930     0.22100
C1693       C  0.68519812  0.85916226  0.92657641    -0.34200
C1694       C  0.67045138  0.82845745  0.91363616     0.16200
O1695       O  0.66295562  0.76832800  0.89990782    -0.26200
C1696       C  0.63888452  0.78468384  0.89299003     0.05900
C1697       C  0.64243940  0.82252549  0.90094491    -0.31100
O1698       O  0.72998777  0.87769674  0.95123430    -0.22900
C1699       C  0.75176251  0.85837673  0.95803294    -0.02900
C1700       C  0.74875822  0.82225074  0.94930220    -0.17400
H1701       H  0.71718422  0.76251984  0.92271530     0.20600
H1702       H  0.67568522  0.88507312  0.92775525     0.19000
H1703       H  0.62503938  0.84119079  0.89831809     0.18900
H1704       H  0.76328588  0.80096511  0.95204450     0.14800
C1705       C  0.43178786  0.74415617  0.78790353     0.30300
C1706       C  0.40264638  0.74795939  0.77706230    -0.36100
C1707       C  0.37813020  0.71067269  0.76709317     0.16200
C1708       C  0.38234986  0.67229498  0.76739793     0.22100
C1709       C  0.41220790  0.66868870  0.77824857    -0.34200
C1710       C  0.43637066  0.70602658  0.78854975     0.16200
O1711       O  0.45441146  0.77352674  0.79919981    -0.26200
C1712       C  0.47403393  0.75450936  0.80745213     0.05900
C1713       C  0.46427199  0.71232764  0.80129049    -0.31100
O1714       O  0.35499112  0.64129371  0.75697125    -0.22900
C1715       C  0.33308550  0.66042377  0.75014203    -0.02900
C1716       C  0.34621026  0.70343997  0.75605001    -0.17400
H1717       H  0.39813267  0.77735856  0.77683308     0.20600
H1718       H  0.41530170  0.63850930  0.77895097     0.19000
H1719       H  0.47378874  0.68854449  0.80600586     0.18900
H1720       H  0.33419576  0.72638277  0.75258080     0.14800
C1721       C  0.49799942  0.99634050  0.85183004     0.30300
C1722       C  0.47311060  0.95228022  0.84565687    -0.36100
C1723       C  0.49128997  0.92391154  0.84852933     0.16200
C1724       C  0.53140128  0.93777320  0.85674264     0.22100
C1725       C  0.55606369  0.98183795  0.86310197    -0.34200
C1726       C  0.53761238  0.01018164  0.86039153     0.16200
O1727       O  0.48842137  0.02911984  0.84987437    -0.26200
C1728       C  0.52197488  0.06425175  0.85748093     0.05900
C1729       C  0.55347340  0.05448595  0.86432408    -0.31100
O1730       O  0.54383481  0.90655519  0.85679573    -0.22900
C1731       C  0.51117761  0.87232574  0.84848216    -0.02900
C1732       C  0.47728012  0.88119891  0.84333710    -0.17400
H1733       H  0.44237812  0.94125913  0.83872934     0.20600
H1734       H  0.58796727  0.99360258  0.86934523     0.19000
H1735       H  0.58444925  0.07726145  0.87066721     0.18900
H1736       H  0.44757900  0.86016238  0.83611091     0.14800
C1737       C  0.96970872  0.34547386  0.67729326     0.30300
C1738       C  0.94294777  0.31097104  0.66656021    -0.36100
C1739       C  0.90102698  0.27725203  0.67239340     0.16200
C1740       C  0.88614692  0.27664991  0.68781817     0.22100
C1741       C  0.91279733  0.31195362  0.69859457    -0.34200
C1742       C  0.95499607  0.34627136  0.69266139     0.16200
O1743       O  0.01009468  0.38019801  0.67414315    -0.26200
C1744       C  0.02160177  0.40419688  0.68756211     0.05900
C1745       C  0.98875289  0.38484007  0.69957900    -0.31100
O1746       O  0.84731626  0.23899903  0.69094228    -0.22900
C1747       C  0.83769948  0.21558586  0.67727612    -0.02900
C1748       C  0.86959049  0.23859480  0.66529544    -0.17400
H1749       H  0.95439515  0.31007193  0.65452883     0.20600
H1750       H  0.90190448  0.31221149  0.71076406     0.19000
H1751       H  0.98956006  0.39751305  0.71153954     0.18900
H1752       H  0.87090858  0.22763791  0.65323766     0.14800
C1753       C  0.81396385  0.05774381  0.63043377     0.30300
C1754       C  0.84694679  0.06294531  0.61922251    -0.36100
C1755       C  0.83197115  0.03103590  0.60681778     0.16200
C1756       C  0.78767276  0.99584869  0.60554150     0.22100
C1757       C  0.75448092  0.99069591  0.61683278    -0.34200
C1758       C  0.76941748  0.02312768  0.62924081     0.16200
O1759       O  0.82038647  0.08557053  0.64235001    -0.26200
C1760       C  0.77951706  0.06916148  0.64907219     0.05900
C1761       C  0.74631305  0.02998892  0.64139811    -0.31100
O1762       O  0.78137650  0.97037879  0.59272053    -0.22900
C1763       C  0.82220240  0.98995109  0.58571092    -0.02900
C1764       C  0.85479537  0.02781159  0.59399882    -0.17400
H1765       H  0.88172371  0.09069276  0.61991349     0.20600
H1766       H  0.71936261  0.96390652  0.61583098     0.19000
H1767       H  0.71017003  0.01080137  0.64382743     0.18900
H1768       H  0.89026071  0.04994181  0.59095889     0.14800
C1769       C  0.49594225  0.92847078  0.69803021     0.30300
C1770       C  0.45180071  0.90035065  0.70387850    -0.36100
C1771       C  0.42880506  0.85595347  0.69786441     0.16200
C1772       C  0.44766711  0.84024725  0.68670930     0.22100
C1773       C  0.49206658  0.86859188  0.68082434    -0.34200
C1774       C  0.51530700  0.91317301  0.68693545     0.16200
O1775       O  0.52415600  0.97004346  0.70291088    -0.26200
C1776       C  0.56249378  0.98220099  0.69490964     0.05900
C1777       C  0.55890140  0.94811037  0.68463728    -0.31100
O1778       O  0.41985099  0.79724082  0.68283245    -0.22900
C1779       C  0.38286466  0.78530303  0.69170678    -0.02900
C1780       C  0.38672176  0.82056516  0.70132068    -0.17400
H1781       H  0.43680688  0.91204936  0.71278385     0.20600
H1782       H  0.50763125  0.85650442  0.67229945     0.19000
H1783       H  0.58515633  0.94795984  0.67732002     0.18900
H1784       H  0.36199421  0.82022218  0.70960679     0.14800
C1785       C  0.61837093  0.10905525  0.75638617     0.30300
C1786       C  0.59069837  0.09883191  0.76999173    -0.36100
C1787       C  0.59920942  0.13566728  0.77980724     0.16200
C1788       C  0.63312836  0.17963100  0.77663824     0.22100
C1789       C  0.66145230  0.18974884  0.76309324    -0.34200
C1790       C  0.65257719  0.15278796  0.75311354     0.16200
O1791       O  0.61306393  0.08031680  0.74491577    -0.26200
C1792       C  0.64430444  0.10544177  0.73401118     0.05900
C1793       C  0.67033800  0.15099160  0.73855262    -0.31100
O1794       O  0.63338704  0.20911234  0.78706438    -0.22900
C1795       C  0.59895482  0.18361303  0.79693732    -0.02900
C1796       C  0.57667472  0.13763673  0.79298933    -0.17400
H1797       H  0.56314695  0.06472216  0.77239204     0.20600
H1798       H  0.68742801  0.22421405  0.76022642     0.19000
H1799       H  0.69635157  0.17909153  0.73171458     0.18900
H1800       H  0.54748040  0.10981200  0.79880873     0.14800
loop_ 
_geom_bond_atom_site_label_1 
_geom_bond_atom_site_label_2 
_geom_bond_distance 
_geom_bond_site_symmetry_2 
_ccdc_geom_bond_type 
C1            C2   1.396       .  A
C1            C6   1.406       .  A
C1         C1792   1.487       .  S
C2            C3   1.397       .  A
C2            H7   1.084       .  S
C3            C4   1.405       .  A
C3         C1776   1.485   1_545  S
C4            C5   1.418       .  A
C4            H8   1.080       .  S
C5            C6   1.422       .  A
C5           C14   1.510       .  S
C6            H9   1.080       .  S
C10          C11   1.395       .  A
C10          C15   1.408       .  A
C10        C1760   1.490       .  S
C11          C12   1.398       .  A
C11          H16   1.081       .  S
C12          C13   1.401       .  A
C12        C1747   1.481       .  S
C13          C14   1.417       .  A
C13          H17   1.081       .  S
C14          C15   1.424       .  A
C15          H18   1.079       .  S
C19          C20   1.401       .  A
C19          C24   1.396       .  A
C19        C1712   1.478       .  S
C20          C21   1.413       .  A
C20          H25   1.080       .  S
C21          C22   1.419       .  A
C21          C30   1.499       .  S
C22          C23   1.402       .  A
C22          H26   1.081       .  S
C23          C24   1.395       .  A
C23        C1731   1.481       .  S
C24          H27   1.081       .  S
C28          C29   1.398       .  A
C28          C33   1.397       .  A
C28        C1696   1.477       .  S
C29          C30   1.413       .  A
C29          H34   1.081       .  S
C30          C31   1.421       .  A
C31          C32   1.405       .  A
C31          H35   1.079       .  S
C32          C33   1.400       .  A
C32        C1683   1.489       .  S
C33          H36   1.083       .  S
C37          C38   1.409       .  A
C37          C42   1.397       .  A
C37        C1664   1.492       .  S
C38          C39   1.425       .  A
C38          H43   1.081       .  S
C39          C40   1.419       .  A
C39          C50   1.512       .  S
C40          C41   1.402       .  A
C40          H44   1.081       .  S
C41          C42   1.394       .  A
C41        C1648   1.483       .  S
C42          H45   1.079       .  S
C46          C47   1.401       .  A
C46          C51   1.407       .  A
C46        C1619   1.491       .  S
C47          C48   1.399       .  A
C47          H52   1.081       .  S
C48          C49   1.404       .  A
C48        C1635   1.484       .  S
C49          C50   1.417       .  A
C49          H53   1.081       .  S
C50          C51   1.422       .  A
C51          H54   1.081       .  S
C55          C56   1.405   1_556  A
C55          C60   1.394   1_556  A
C55        C1584   1.482       .  S
C56          C57   1.418       .  A
C56          H61   1.080       .  S
C57          C58   1.420       .  A
C57          C68   1.505       .  S
C58          C59   1.404       .  A
C58          H62   1.082       .  S
C59          C60   1.397       .  A
C59        C1603   1.487       .  S
C60          H63   1.081   1_554  S
C64          C65   1.398       .  A
C64          C69   1.400       .  A
C64        C1571   1.480       .  S
C65          C66   1.400       .  A
C65          H70   1.080       .  S
C66          C67   1.407       .  A
C66        C1552   1.488       .  S
C67          C68   1.420       .  A
C67          H71   1.081       .  S
C68          C69   1.416       .  A
C69          H72   1.082       .  S
C73          C74   1.406   1_655  A
C73          C78   1.396       .  A
C73        C1520   1.484       .  S
C74          C75   1.419       .  A
C74          H79   1.080       .  S
C75          C76   1.419   1_455  A
C75          C86   1.509       .  S
C76          C77   1.405       .  A
C76          H80   1.080       .  S
C77          C78   1.395       .  A
C77        C1539   1.482       .  S
C78          H81   1.084       .  S
C82          C83   1.396       .  A
C82          C87   1.406       .  A
C82        C1507   1.486       .  S
C83          C84   1.399       .  A
C83          H88   1.081       .  S
C84          C85   1.405       .  A
C84        C1488   1.487       .  S
C85          C86   1.420       .  A
C85          H89   1.081       .  S
C86          C87   1.420       .  A
C87          H90   1.080       .  S
C91          C92   1.410       .  A
C91          C96   1.396       .  A
C91        C1459   1.493       .  S
C92          C93   1.426       .  A
C92          H97   1.078       .  S
C93          C94   1.418       .  A
C93         C102   1.518       .  S
C94          C95   1.404       .  A
C94          H98   1.078       .  S
C95          C96   1.398       .  A
C95        C1472   1.484       .  S
C96          H99   1.083       .  S
C100        C101   1.410       .  A
C100        C105   1.399       .  A
C100       C1427   1.496       .  S
C101        C102   1.426       .  A
C101        H106   1.078       .  S
C102        C103   1.419       .  A
C103        C104   1.403       .  A
C103        H107   1.079       .  S
C104        C105   1.399       .  A
C104       C1440   1.487   1_545  S
C105        H108   1.082       .  S
C109        C110   1.404       .  A
C109        C114   1.397   1_455  A
C109       C1408   1.483       .  S
C110        C111   1.420       .  A
C110        H115   1.081       .  S
C111        C112   1.417   1_455  A
C111        C120   1.505       .  S
C112        C113   1.400       .  A
C112        H116   1.080       .  S
C113        C114   1.394       .  A
C113       C1395   1.480       .  S
C114        H117   1.079       .  S
C118        C119   1.403       .  A
C118        C123   1.399       .  A
C118       C1379   1.490       .  S
C119        C120   1.422       .  A
C119        H124   1.080   1_455  S
C120        C121   1.419       .  A
C121        C122   1.402       .  A
C121        H125   1.080       .  S
C122        C123   1.394       .  A
C122       C1363   1.482       .  S
C123        H126   1.079       .  S
C127        C128   1.399       .  A
C127        C132   1.404       .  A
C127       C1347   1.487       .  S
C128        C129   1.399       .  A
C128        H133   1.080       .  S
C129        C130   1.406       .  A
C129       C1331   1.487       .  S
C130        C131   1.419       .  A
C130        H134   1.081       .  S
C131        C132   1.421       .  A
C131        C140   1.512       .  S
C132        H135   1.081       .  S
C136        C137   1.398       .  A
C136        C141   1.409       .  A
C136       C1299   1.491       .  S
C137        C138   1.394       .  A
C137        H142   1.080       .  S
C138        C139   1.405       .  A
C138       C1315   1.488       .  S
C139        C140   1.421       .  A
C139        H143   1.079       .  S
C140        C141   1.424       .  A
C141        H144   1.081       .  S
C145        C146   1.396       .  A
C145        C150   1.404       .  A
C145       C1283   1.483       .  S
C146        C147   1.398       .  A
C146        H151   1.081       .  S
C147        C148   1.404       .  A
C147       C1264   1.486       .  S
C148        C149   1.421       .  A
C148        H152   1.081       .  S
C149        C150   1.420       .  A
C149        C156   1.510       .  S
C150        H153   1.081       .  S
C154        C155   1.404       .  A
C154        C159   1.396       .  A
C154       C1232   1.485       .  S
C155        C156   1.420       .  A
C155        H160   1.080       .  S
C156        C157   1.422       .  A
C157        C158   1.407       .  A
C157        H161   1.081       .  S
C158        C159   1.398       .  A
C158       C1251   1.491       .  S
C159        H162   1.080       .  S
C163        C164   1.397       .  A
C163        C168   1.403   1_556  A
C163       C1200   1.481   1_565  S
C164        C165   1.396   1_556  A
C164        H169   1.084       .  S
C165        C166   1.405       .  A
C165       C1219   1.483       .  S
C166        C167   1.417       .  A
C166        H170   1.080       .  S
C167        C168   1.418       .  A
C167        C174   1.505       .  S
C168        H171   1.080       .  S
C172        C173   1.405       .  A
C172        C177   1.397       .  A
C172       C1187   1.488       .  S
C173        C174   1.421       .  A
C173        H178   1.081       .  S
C174        C175   1.418       .  A
C175        C176   1.399       .  A
C175        H179   1.081       .  S
C176        C177   1.396       .  A
C176       C1171   1.481       .  S
C177        H180   1.078       .  S
C181        C182   1.402       .  A
C181        C186   1.395       .  A
C181       C1139   1.479       .  S
C182        C183   1.419       .  A
C182        H187   1.080   1_455  S
C183        C184   1.421       .  A
C183        C192   1.510       .  S
C184        C185   1.406       .  A
C184        H188   1.081       .  S
C185        C186   1.398       .  A
C185       C1155   1.489       .  S
C186        H189   1.081       .  S
C190        C191   1.404       .  A
C190        C195   1.398   1_455  A
C190       C1123   1.486       .  S
C191        C192   1.419       .  A
C191        H196   1.081       .  S
C192        C193   1.421   1_455  A
C193        C194   1.406       .  A
C193        H197   1.081       .  S
C194        C195   1.400       .  A
C194       C1107   1.492       .  S
C195        H198   1.079       .  S
C199        C200   1.397       .  A
C199        C204   1.410       .  A
C199       C1072   1.492       .  S
C200        C201   1.394       .  A
C200        H205   1.083       .  S
C201        C202   1.402       .  A
C201       C1088   1.485       .  S
C202        C203   1.418       .  A
C202        H206   1.076       .  S
C203        C204   1.428       .  A
C203        C210   1.519       .  S
C204        H207   1.077       .  S
C208        C209   1.408       .  A
C208        C213   1.396   1_545  A
C208       C1043   1.492       .  S
C209        C210   1.428       .  A
C209        H214   1.077       .  S
C210        C211   1.419       .  A
C211        C212   1.404   1_545  A
C211        H215   1.077       .  S
C212        C213   1.394       .  A
C212       C1056   1.483       .  S
C213        H216   1.083       .  S
C217        C218   1.414       .  A
C217        C222   1.403       .  A
C217       C1024   1.498       .  S
C218        C219   1.425       .  A
C218        H223   1.082       .  S
C219        C220   1.418       .  A
C219        C228   1.514       .  S
C220        C221   1.403       .  A
C220        H224   1.080       .  S
C221        C222   1.399       .  A
C221       C1011   1.489       .  S
C222        H225   1.081       .  S
C226        C227   1.406       .  A
C226        C231   1.395       .  A
C226        C992   1.493       .  S
C227        C228   1.425       .  A
C227        H232   1.081       .  S
C228        C229   1.421       .  A
C229        C230   1.411       .  A
C229        H233   1.082       .  S
C230        C231   1.401       .  A
C230        C979   1.492       .  S
C231        H234   1.081       .  S
C235        C236   1.407       .  A
C235        C240   1.399       .  A
C235        C963   1.489       .  S
C236        C237   1.420       .  A
C236        H241   1.081       .  S
C237        C238   1.421       .  A
C237        C246   1.512       .  S
C238        C239   1.404       .  A
C238        H242   1.081       .  S
C239        C240   1.398       .  A
C239        C947   1.486       .  S
C240        H243   1.080       .  S
C244        C245   1.404       .  A
C244        C249   1.394   1_545  A
C244        C931   1.483       .  S
C245        C246   1.419       .  A
C245        H250   1.080       .  S
C246        C247   1.423       .  A
C247        C248   1.410   1_545  A
C247        H251   1.081       .  S
C248        C249   1.398       .  A
C248        C912   1.487       .  S
C249        H252   1.082       .  S
C253        C254   1.401       .  A
C253        C258   1.397       .  A
C253        C883   1.481   1_565  S
C254        C255   1.417       .  A
C254        H259   1.080       .  S
C255        C256   1.422       .  A
C255        C264   1.508       .  S
C256        C257   1.409       .  A
C256        H260   1.081       .  S
C257        C258   1.399       .  A
C257        C896   1.494       .  S
C258        H261   1.081       .  S
C262        C263   1.407       .  A
C262        C267   1.397       .  A
C262        C848   1.485       .  S
C263        C264   1.420       .  A
C263        H268   1.080       .  S
C264        C265   1.420       .  A
C265        C266   1.402       .  A
C265        H269   1.081       .  S
C266        C267   1.395       .  A
C266        C867   1.484       .  S
C267        H270   1.081       .  S
C271        C272   1.409       .  A
C271        C276   1.396       .  A
C271        C819   1.490       .  S
C272        C273   1.422       .  A
C272        H277   1.080       .  S
C273        C274   1.415       .  A
C273        C282   1.508       .  S
C274        C275   1.402       .  A
C274        H278   1.080       .  S
C275        C276   1.398       .  A
C275        C832   1.480       .  S
C276        H279   1.083       .  S
C280        C281   1.406       .  A
C280        C285   1.405       .  A
C280        C800   1.496       .  S
C281        C282   1.422       .  A
C281        H286   1.081       .  S
C282        C283   1.416       .  A
C283        C284   1.402       .  A
C283        H287   1.081       .  S
C284        C285   1.404       .  A
C284        C787   1.488       .  S
C285        H288   1.081       .  S
C289        C290   1.402   1_556  A
C289        C294   1.399       .  A
C289        C768   1.483       .  S
C290        C291   1.416       .  A
C290        H295   1.081   1_554  S
C291        C292   1.421       .  A
C291        C300   1.504       .  S
C292        C293   1.404       .  A
C292        H296   1.081       .  S
C293        C294   1.398   1_554  A
C293        C752   1.487       .  S
C294        H297   1.080       .  S
C298        C299   1.402       .  A
C298        C303   1.397       .  A
C298        C723   1.485       .  S
C299        C300   1.416       .  A
C299        H304   1.079       .  S
C300        C301   1.421       .  A
C301        C302   1.405       .  A
C301        H305   1.081       .  S
C302        C303   1.402       .  A
C302        C736   1.491       .  S
C303        H306   1.081       .  S
C307        C308   1.400       .  A
C307        C312   1.397       .  A
C307        C691   1.483       .  S
C308        C309   1.414       .  A
C308        H313   1.079       .  S
C309        C310   1.419       .  A
C309        C318   1.500       .  S
C310        C311   1.405       .  A
C310        H314   1.080       .  S
C311        C312   1.399       .  A
C311        C704   1.485       .  S
C312        H315   1.083       .  S
C316        C317   1.400   1_655  A
C316        C321   1.396       .  A
C316        C659   1.478       .  S
C317        C318   1.415       .  A
C317        H322   1.081       .  S
C318        C319   1.418   1_455  A
C319        C320   1.400       .  A
C319        H323   1.081       .  S
C320        C321   1.398       .  A
C320        C675   1.479       .  S
C321        H324   1.081       .  S
O325        C336   1.292       .  A
O325       Eu361   2.465       .  S
O326        C337   1.289       .  A
O326       Eu360   2.452       .  S
O327        C338   1.295       .  A
O327       Eu333   2.479       .  S
O328        C339   1.290       .  A
O328       Eu333   2.456       .  S
O329        C339   1.292       .  A
O329       Eu363   2.463       .  S
O330        C338   1.291       .  A
O330       Eu362   2.458       .  S
O331        C337   1.294       .  A
O331       Eu333   2.482       .  S
O332        C336   1.294       .  A
O332       Eu333   2.480       .  S
Eu333       O343   2.363       .  S
Eu333       O335   2.362       .  S
Eu333       O334   2.353       .  S
Eu333       O341   2.355       .  S
O334       Eu363   2.350       .  S
O334       Eu360   2.351       .  S
O335       Eu361   2.363       .  S
O335       Eu362   2.361       .  S
C336       C1795   1.479       .  S
C337       C1392   1.475       .  S
C338       C1296   1.476       .  S
C339        C672   1.467       .  S
H340        O341   0.963       .  S
O341       Eu362   2.359       .  S
O341       Eu360   2.348       .  S
H342        O343   0.968       .  S
O343       Eu361   2.351       .  S
O343       Eu363   2.350       .  S
O344        C367   1.289       .  A
O344       Eu360   2.445       .  S
O345        C368   1.291       .  A
O345       Eu361   2.466       .  S
O346        C369   1.292       .  A
O346       Eu362   2.472       .  S
O347        C370   1.291       .  A
O347       Eu363   2.461       .  S
O348        C371   1.291       .  A
O348       Eu363   2.461       .  S
O349        C372   1.293       .  A
O349       Eu362   2.469       .  S
O350        C373   1.291       .  A
O350       Eu364   2.463       .  S
O351        C374   1.290       .  A
O351       Eu364   2.447       .  S
O352        C373   1.292       .  A
O352       Eu362   2.456       .  S
O353        C374   1.291       .  A
O353       Eu363   2.468       .  S
O354        C369   1.292       .  A
O354       Eu360   2.459       .  S
O355        C372   1.290       .  A
O355       Eu361   2.459       .  S
O356        C371   1.287       .  A
O356       Eu361   2.440       .  S
O357        C370   1.290       .  A
O357       Eu360   2.454       .  S
O358        C367   1.292       .  A
O358       Eu364   2.473       .  S
O359        C368   1.291       .  A
O359       Eu364   2.454       .  S
Eu360       O378   2.354       .  S
Eu360       O366   2.352       .  S
Eu361       O365   2.353       .  S
Eu361       O376   2.349       .  S
Eu362       O376   2.353       .  S
Eu362       O366   2.357       .  S
Eu363       O365   2.350       .  S
Eu363       O378   2.356       .  S
Eu364       O365   2.349       .  S
Eu364       O376   2.356       .  S
Eu364       O378   2.356       .  S
Eu364       O366   2.352       .  S
C367       C1587   1.470       .  S
C368       C1360   1.473       .  S
C369       C1680   1.478       .  S
C370        C771   1.467       .  S
C371       C1728   1.462       .  S
C372        C960   1.474       .  S
C373        C707   1.471       .  S
C374       C1203   1.470       .  S
H375        O376   0.970       .  S
H377        O378   0.961       .  S
O379        C390   1.291       .  A
O379       Eu415   2.450   1_556  S
O380        C391   1.292       .  A
O380       Eu414   2.468   1_545  S
O381        C392   1.288       .  A
O381       Eu387   2.443       .  S
O382        C393   1.292       .  A
O382       Eu387   2.466   1_546  S
O383        C393   1.290       .  A
O383       Eu417   2.460   1_546  S
O384        C392   1.292       .  A
O384       Eu416   2.465       .  S
O385        C391   1.291       .  A
O385       Eu387   2.461   1_545  S
O386        C390   1.290       .  A
O386       Eu387   2.465   1_556  S
Eu387       O397   2.353   1_554  S
Eu387       O389   2.358       .  S
Eu387       O388   2.348       .  S
Eu387       O395   2.362       .  S
O388       Eu417   2.355       .  S
O388       Eu414   2.356       .  S
O389       Eu415   2.346       .  S
O389       Eu416   2.352       .  S
C390       C1699   1.468       .  S
C391        C755   1.472       .  S
C392       C1168   1.464       .  S
C393        C656   1.470       .  S
H394        O395   0.966       .  S
O395       Eu416   2.353       .  S
O395       Eu414   2.363       .  S
H396        O397   0.957       .  S
O397       Eu415   2.363   1_556  S
O397       Eu417   2.349   1_556  S
O398        C421   1.295   1_545  A
O398       Eu414   2.477   1_545  S
O399        C422   1.291       .  A
O399       Eu415   2.457       .  S
O400        C423   1.292       .  A
O400       Eu416   2.455       .  S
O401        C424   1.292       .  A
O401       Eu417   2.466   1_445  S
O402        C425   1.291       .  A
O402       Eu417   2.456   1_556  S
O403        C426   1.291       .  A
O403       Eu416   2.463       .  S
O404        C427   1.295       .  A
O404       Eu418   2.481       .  S
O405        C428   1.295   1_655  A
O405       Eu418   2.487       .  S
O406        C427   1.291       .  A
O406       Eu416   2.463       .  S
O407        C428   1.291       .  A
O407       Eu417   2.456   1_455  S
O408        C423   1.292       .  A
O408       Eu414   2.475       .  S
O409        C426   1.292       .  A
O409       Eu415   2.469       .  S
O410        C425   1.290       .  A
O410       Eu415   2.458   1_556  S
O411        C424   1.291   1_655  A
O411       Eu414   2.459   1_545  S
O412        C421   1.292       .  A
O412       Eu418   2.472       .  S
O413        C422   1.292       .  A
O413       Eu418   2.458       .  S
Eu414       O432   2.357       .  S
Eu414       O420   2.353       .  S
Eu415       O419   2.353       .  S
Eu415       O430   2.355       .  S
Eu416       O430   2.349       .  S
Eu416       O420   2.364       .  S
Eu417       O419   2.352       .  S
Eu417       O432   2.350       .  S
Eu418       O419   2.357       .  S
Eu418       O430   2.364       .  S
Eu418       O432   2.354       .  S
Eu418       O420   2.357       .  S
C421       C1456   1.481   1_655  S
C422        C739   1.468       .  S
C423       C1040   1.477       .  S
C424       C1555   1.472       .  S
C425       C1376   1.468       .  S
C426       C1600   1.476       .  S
C427        C803   1.480       .  S
C428       C1216   1.481       .  S
H429        O430   0.974       .  S
H431        O432   0.964       .  S
O433        C444   1.295       .  A
O433       Eu469   2.481       .  S
O434        C445   1.292       .  A
O434       Eu468   2.466       .  S
O435        C446   1.291       .  A
O435       Eu441   2.457       .  S
O436        C447   1.293       .  A
O436       Eu441   2.472       .  S
O437        C447   1.293       .  A
O437       Eu471   2.470       .  S
O438        C446   1.291       .  A
O438       Eu470   2.467       .  S
O439        C445   1.291       .  A
O439       Eu441   2.457       .  S
O440        C444   1.289       .  A
O440       Eu441   2.452       .  S
Eu441       O451   2.356       .  S
Eu441       O443   2.349       .  S
Eu441       O442   2.351       .  S
Eu441       O449   2.360       .  S
O442       Eu471   2.356       .  S
O442       Eu468   2.357       .  S
O443       Eu469   2.353       .  S
O443       Eu470   2.353       .  S
C444       C1667   1.474       .  S
C445        C976   1.472       .  S
C446        C880   1.473       .  S
C447       C1104   1.478       .  S
H448        O449   0.971       .  S
O449       Eu470   2.358       .  S
O449       Eu468   2.360       .  S
H450        O451   0.968       .  S
O451       Eu469   2.352       .  S
O451       Eu471   2.349       .  S
O452        C475   1.292       .  A
O452       Eu468   2.460       .  S
O453        C476   1.293       .  A
O453       Eu469   2.475       .  S
O454        C477   1.293       .  A
O454       Eu470   2.472       .  S
O455        C478   1.292       .  A
O455       Eu471   2.457       .  S
O456        C479   1.291       .  A
O456       Eu471   2.464       .  S
O457        C480   1.291       .  A
O457       Eu470   2.459       .  S
O458        C481   1.289       .  A
O458       Eu472   2.452       .  S
O459        C482   1.292       .  A
O459       Eu472   2.463       .  S
O460        C481   1.293       .  A
O460       Eu470   2.470       .  S
O461        C482   1.291       .  A
O461       Eu471   2.464       .  S
O462        C477   1.290       .  A
O462       Eu468   2.452       .  S
O463        C480   1.290       .  A
O463       Eu469   2.452       .  S
O464        C479   1.290       .  A
O464       Eu469   2.449       .  S
O465        C478   1.290       .  A
O465       Eu468   2.460       .  S
O466        C475   1.293       .  A
O466       Eu472   2.481       .  S
O467        C476   1.293       .  A
O467       Eu472   2.465       .  S
Eu468       O486   2.357       .  S
Eu468       O474   2.351       .  S
Eu469       O473   2.355       .  S
Eu469       O484   2.352       .  S
Eu470       O484   2.352       .  S
Eu470       O474   2.354       .  S
Eu471       O473   2.358       .  S
Eu471       O486   2.361       .  S
Eu472       O473   2.356       .  S
Eu472       O484   2.361       .  S
Eu472       O486   2.353       .  S
Eu472       O474   2.354       .  S
C475       C1424   1.483       .  S
C476       C1008   1.480       .  S
C477       C1491   1.472       .  S
C478       C1075   1.473       .  S
C479       C1536   1.470       .  S
C480       C1280   1.465       .  S
C481       C1152   1.469       .  S
C482        C816   1.476       .  S
H483        O484   0.972       .  S
H485        O486   0.959       .  S
O487        C498   1.295       .  A
O487       Eu523   2.489       .  S
O488        C499   1.290       .  A
O488       Eu522   2.455       .  S
O489        C500   1.291       .  A
O489       Eu495   2.459       .  S
O490        C501   1.289       .  A
O490       Eu495   2.439       .  S
O491        C501   1.292       .  A
O491       Eu525   2.472       .  S
O492        C500   1.289       .  A
O492       Eu524   2.452       .  S
O493        C499   1.290       .  A
O493       Eu495   2.455       .  S
O494        C498   1.290       .  A
O494       Eu495   2.450       .  S
Eu495       O505   2.360       .  S
Eu495       O497   2.342       .  S
Eu495       O496   2.355       .  S
Eu495       O503   2.353       .  S
O496       Eu525   2.356       .  S
O496       Eu522   2.353       .  S
O497       Eu523   2.350       .  S
O497       Eu524   2.350       .  S
C498       C1779   1.479       .  S
C499       C1411   1.466       .  S
C500        C915   1.468       .  S
C501       C1715   1.469       .  S
H502        O503   0.965       .  S
O503       Eu524   2.358       .  S
O503       Eu522   2.349       .  S
H504        O505   0.975       .  S
O505       Eu523   2.351       .  S
O505       Eu525   2.364       .  S
O506        C529   1.288       .  A
O506       Eu522   2.441       .  S
O507        C530   1.293       .  A
O507       Eu523   2.469       .  S
O508        C531   1.292       .  A
O508       Eu524   2.469       .  S
O509        C532   1.291       .  A
O509       Eu525   2.454       .  S
O510        C533   1.290       .  A
O510       Eu525   2.452       .  S
O511        C534   1.292       .  A
O511       Eu524   2.460       .  S
O512        C535   1.291       .  A
O512       Eu526   2.462       .  S
O513        C536   1.289       .  A
O513       Eu526   2.452       .  S
O514        C535   1.291       .  A
O514       Eu524   2.462       .  S
O515        C536   1.294       .  A
O515       Eu525   2.475       .  S
O516        C531   1.290       .  A
O516       Eu522   2.450       .  S
O517        C534   1.292       .  A
O517       Eu523   2.467       .  S
O518        C533   1.293       .  A
O518       Eu523   2.472       .  S
O519        C532   1.290       .  A
O519       Eu522   2.467       .  S
O520        C529   1.291       .  A
O520       Eu526   2.459       .  S
O521        C530   1.291       .  A
O521       Eu526   2.467       .  S
Eu522       O540   2.349       .  S
Eu522       O528   2.359       .  S
Eu523       O527   2.347       .  S
Eu523       O538   2.366       .  S
Eu524       O538   2.367       .  S
Eu524       O528   2.347       .  S
Eu525       O527   2.350       .  S
Eu525       O540   2.350       .  S
Eu526       O527   2.348       .  S
Eu526       O538   2.357       .  S
Eu526       O540   2.363       .  S
Eu526       O528   2.345       .  S
C529       C1744   1.462       .  S
C530       C1235   1.477       .  S
C531       C1312   1.473       .  S
C532        C688   1.474       .  S
C533       C1328   1.470       .  S
C534        C851   1.474       .  S
C535       C1616   1.473       .  S
C536        C944   1.468       .  S
H537        O538   0.955       .  S
H539        O540   0.970       .  S
O541        C552   1.292       .  A
O541       Eu577   2.466       .  S
O542        C553   1.291       .  A
O542       Eu576   2.460       .  S
O543        C554   1.290       .  A
O543       Eu549   2.454       .  S
O544        C555   1.292       .  A
O544       Eu549   2.477       .  S
O545        C555   1.287       .  A
O545       Eu579   2.430       .  S
O546        C554   1.291       .  A
O546       Eu578   2.465       .  S
O547        C553   1.288       .  A
O547       Eu549   2.435       .  S
O548        C552   1.290       .  A
O548       Eu549   2.456       .  S
Eu549       O559   2.348       .  S
Eu549       O551   2.353       .  S
Eu549       O550   2.353       .  S
Eu549       O557   2.359       .  S
O550       Eu579   2.347       .  S
O550       Eu576   2.359       .  S
O551       Eu577   2.349       .  S
O551       Eu578   2.354       .  S
C552       C1568   1.469       .  S
C553       C1059   1.463       .  S
C554       C1184   1.470       .  S
C555        C835   1.469       .  S
H556        O557   0.973       .  S
O557       Eu578   2.348       .  S
O557       Eu576   2.350       .  S
H558        O559   0.970       .  S
O559       Eu577   2.360       .  S
O559       Eu579   2.355       .  S
O560        C583   1.289       .  A
O560       Eu576   2.441       .  S
O561        C584   1.291       .  A
O561       Eu577   2.466       .  S
O562        C585   1.290       .  A
O562       Eu578   2.455       .  S
O563        C586   1.295       .  A
O563       Eu579   2.482       .  S
O564        C587   1.292       .  A
O564       Eu579   2.473       .  S
O565        C588   1.290       .  A
O565       Eu578   2.450       .  S
O566        C589   1.293       .  A
O566       Eu580   2.474       .  S
O567        C590   1.294       .  A
O567       Eu580   2.477       .  S
O568        C589   1.291       .  A
O568       Eu578   2.459       .  S
O569        C590   1.287       .  A
O569       Eu579   2.440       .  S
O570        C585   1.294       .  A
O570       Eu576   2.476       .  S
O571        C588   1.292       .  A
O571       Eu577   2.476       .  S
O572        C587   1.289       .  A
O572       Eu577   2.440       .  S
O573        C586   1.291       .  A
O573       Eu576   2.463       .  S
O574        C583   1.294       .  A
O574       Eu580   2.480       .  S
O575        C584   1.291       .  A
O575       Eu580   2.451       .  S
Eu576       O594   2.355       .  S
Eu576       O582   2.351       .  S
Eu577       O581   2.357       .  S
Eu577       O592   2.351       .  S
Eu578       O592   2.350       .  S
Eu578       O582   2.359       .  S
Eu579       O581   2.355       .  S
Eu579       O594   2.347       .  S
Eu580       O581   2.348       .  S
Eu580       O592   2.365       .  S
Eu580       O594   2.353       .  S
Eu580       O582   2.352       .  S
C583       C1504   1.473       .  S
C584       C1091   1.471       .  S
C585       C1443   1.475       .  S
C586       C1027   1.481       .  S
C587       C1475   1.470       .  S
C588        C720   1.475       .  S
C589        C784   1.473       .  S
C590       C1120   1.468       .  S
H591        O592   0.967       .  S
H593        O594   0.964       .  S
O595        C606   1.290       .  A
O595       Eu631   2.451       .  S
O596        C607   1.291       .  A
O596       Eu630   2.459       .  S
O597        C608   1.293       .  A
O597       Eu603   2.471       .  S
O598        C609   1.292       .  A
O598       Eu603   2.465       .  S
O599        C609   1.292       .  A
O599       Eu633   2.461       .  S
O600        C608   1.292       .  A
O600       Eu632   2.462       .  S
O601        C607   1.292       .  A
O601       Eu603   2.466       .  S
O602        C606   1.293       .  A
O602       Eu603   2.478       .  S
Eu603       O613   2.357       .  S
Eu603       O605   2.351       .  S
Eu603       O604   2.356       .  S
Eu603       O611   2.364       .  S
O604       Eu633   2.354       .  S
O604       Eu630   2.355       .  S
O605       Eu631   2.355       .  S
O605       Eu632   2.357       .  S
C606       C1763   1.478       .  S
C607       C1248   1.473       .  S
C608        C899   1.475       .  S
C609       C1344   1.471       .  S
H610        O611   0.966       .  S
O611       Eu632   2.355       .  S
O611       Eu630   2.354       .  S
H612        O613   0.958       .  S
O613       Eu631   2.343       .  S
O613       Eu633   2.354       .  S
O614        C637   1.291       .  A
O614       Eu630   2.452       .  S
O615        C638   1.290   1_655  A
O615       Eu631   2.451   1_545  S
O616        C639   1.294       .  A
O616       Eu632   2.476       .  S
O617        C640   1.291       .  A
O617       Eu633   2.463       .  S
O618        C641   1.291       .  A
O618       Eu633   2.457       .  S
O619        C642   1.293       .  A
O619       Eu632   2.472   1_545  S
O620        C643   1.291       .  A
O620       Eu634   2.457   1_545  S
O621        C644   1.290       .  A
O621       Eu634   2.456   1_455  S
O622        C643   1.288       .  A
O622       Eu632   2.451   1_545  S
O623        C644   1.291   1_655  A
O623       Eu633   2.459       .  S
O624        C639   1.292       .  A
O624       Eu630   2.475       .  S
O625        C642   1.293       .  A
O625       Eu631   2.473   1_545  S
O626        C641   1.295       .  A
O626       Eu631   2.488       .  S
O627        C640   1.290       .  A
O627       Eu630   2.456       .  S
O628        C637   1.292       .  A
O628       Eu634   2.471       .  S
O629        C638   1.292       .  A
O629       Eu634   2.465   1_445  S
Eu630       O648   2.360       .  S
Eu630       O636   2.352       .  S
Eu631       O635   2.358       .  S
Eu631       O646   2.364       .  S
Eu632       O646   2.357       .  S
Eu632       O636   2.349       .  S
Eu633       O635   2.352       .  S
Eu633       O648   2.351       .  S
Eu634       O635   2.355       .  S
Eu634       O646   2.360       .  S
Eu634       O648   2.363       .  S
Eu634       O636   2.350       .  S
C637       C1523   1.472       .  S
C638       C1267   1.466       .  S
C639        C995   1.484       .  S
C640       C1651   1.470       .  S
C641        C928   1.480   1_655  S
C642       C1632   1.477       .  S
C643       C1136   1.466       .  S
C644        C864   1.468       .  S
H645        O646   0.978   1_545  S
H647        O648   0.963       .  S
C649        C654   1.381       .  A
C649        C650   1.398       .  A
C649        O655   1.316       .  A
C650        C651   1.398       .  A
C650        H661   1.082       .  S
C651        C660   1.354       .  A
C651        C652   1.380       .  A
C652        C653   1.406       .  A
C652        O658   1.322       .  A
C653        C654   1.407       .  A
C653        H662   1.082   1_655  S
C654        C657   1.366       .  A
O655        C656   1.328       .  A
C656        C657   1.394       .  A
C657        H663   1.082       .  S
O658        C659   1.333       .  A
C659        C660   1.392       .  A
C660        H664   1.082       .  S
C665        C670   1.381       .  A
C665        C666   1.396       .  A
C665        O671   1.315       .  A
C666        C667   1.397       .  A
C666        H677   1.083       .  S
C667        C676   1.350       .  A
C667        C668   1.380       .  A
C668        C669   1.407       .  A
C668        O674   1.323       .  A
C669        C670   1.407       .  A
C669        H678   1.082       .  S
C670        C673   1.364       .  A
O671        C672   1.328       .  A
C672        C673   1.394       .  A
C673        H679   1.082       .  S
O674        C675   1.334       .  A
C675        C676   1.391       .  A
C676        H680   1.082       .  S
C681        C686   1.379       .  A
C681        C682   1.412       .  A
C681        O687   1.326       .  A
C682        C683   1.411       .  A
C682        H693   1.082       .  S
C683        C692   1.370       .  A
C683        C684   1.379       .  A
C684        C685   1.393       .  A
C684        O690   1.309       .  A
C685        C686   1.392       .  A
C685        H694   1.083       .  S
C686        C689   1.350       .  A
O687        C688   1.337       .  A
C688        C689   1.387       .  A
C689        H695   1.083       .  S
O690        C691   1.327       .  A
C691        C692   1.400       .  A
C692        H696   1.082       .  S
C697        C702   1.379       .  A
C697        C698   1.395       .  A
C697        O703   1.309       .  A
C698        C699   1.393       .  A
C698        H709   1.083       .  S
C699        C708   1.352       .  A
C699        C700   1.379       .  A
C700        C701   1.411       .  A
C700        O706   1.324       .  A
C701        C702   1.410       .  A
C701        H710   1.082       .  S
C702        C705   1.371       .  A
O703        C704   1.329       .  A
C704        C705   1.399       .  A
C705        H711   1.082       .  S
O706        C707   1.335       .  A
C707        C708   1.387       .  A
C708        H712   1.083       .  S
C713        C718   1.380       .  A
C713        C714   1.409       .  A
C713        O719   1.324       .  A
C714        C715   1.409       .  A
C714        H725   1.082       .  S
C715        C724   1.369   1_455  A
C715        C716   1.379       .  A
C716        C717   1.398       .  A
C716        O722   1.313   1_455  A
C717        C718   1.397       .  A
C717        H726   1.083       .  S
C718        C721   1.355       .  A
O719        C720   1.334       .  A
C720        C721   1.390       .  A
C721        H727   1.083       .  S
O722        C723   1.330       .  A
C723        C724   1.397       .  A
C724        H728   1.082       .  S
C729        C734   1.378       .  A
C729        C730   1.411       .  A
C729        O735   1.328       .  A
C730        C731   1.411       .  A
C730        H741   1.082       .  S
C731        C740   1.368       .  A
C731        C732   1.381       .  A
C732        C733   1.395       .  A
C732        O738   1.314       .  A
C733        C734   1.396       .  A
C733        H742   1.083       .  S
C734        C737   1.349       .  A
O735        C736   1.337       .  A
C736        C737   1.392       .  A
C737        H743   1.082       .  S
O738        C739   1.327       .  A
C739        C740   1.395       .  A
C740        H744   1.082       .  S
C745        C750   1.379       .  A
C745        C746   1.409       .  A
C745        O751   1.325       .  A
C746        C747   1.409       .  A
C746        H757   1.082       .  S
C747        C756   1.366       .  A
C747        C748   1.381       .  A
C748        C749   1.399       .  A
C748        O754   1.318       .  A
C749        C750   1.400       .  A
C749        H758   1.082       .  S
C750        C753   1.354       .  A
O751        C752   1.335       .  A
C752        C753   1.393       .  A
C753        H759   1.082       .  S
O754        C755   1.329       .  A
C755        C756   1.394       .  A
C756        H760   1.082       .  S
C761        C766   1.379       .  A
C761        C762   1.408       .  A
C761        O767   1.324       .  A
C762        C763   1.408       .  A
C762        H773   1.082       .  S
C763        C772   1.365       .  A
C763        C764   1.381       .  A
C764        C765   1.396       .  A
C764        O770   1.315       .  A
C765        C766   1.397       .  A
C765        H774   1.083       .  S
C766        C769   1.351       .  A
O767        C768   1.334       .  A
C768        C769   1.392       .  A
C769        H775   1.082       .  S
O770        C771   1.327       .  A
C771        C772   1.394       .  A
C772        H776   1.082       .  S
C777        C782   1.380       .  A
C777        C778   1.400       .  A
C777        O783   1.317   1_655  A
C778        C779   1.400       .  A
C778        H789   1.082       .  S
C779        C788   1.357       .  A
C779        C780   1.379       .  A
C780        C781   1.410       .  A
C780        O786   1.325       .  A
C781        C782   1.409       .  A
C781        H790   1.082       .  S
C782        C785   1.368       .  A
O783        C784   1.330       .  A
C784        C785   1.394   1_455  A
C785        H791   1.082       .  S
O786        C787   1.336       .  A
C787        C788   1.392       .  A
C788        H792   1.082       .  S
C793        C798   1.378       .  A
C793        C794   1.413       .  A
C793        O799   1.328       .  A
C794        C795   1.413       .  A
C794        H805   1.082       .  S
C795        C804   1.373       .  A
C795        C796   1.380       .  A
C796        C797   1.400       .  A
C796        O802   1.317       .  A
C797        C798   1.400       .  A
C797        H806   1.082       .  S
C798        C801   1.358       .  A
O799        C800   1.338       .  A
C800        C801   1.394       .  A
C801        H807   1.082       .  S
O802        C803   1.329       .  A
C803        C804   1.399       .  A
C804        H808   1.082       .  S
C809        C814   1.379       .  A
C809        C810   1.410       .  A
C809        O815   1.326       .  A
C810        C811   1.410       .  A
C810        H821   1.082       .  S
C811        C820   1.370       .  A
C811        C812   1.379       .  A
C812        C813   1.400       .  A
C812        O818   1.315       .  A
C813        C814   1.399       .  A
C813        H822   1.083       .  S
C814        C817   1.356       .  A
O815        C816   1.335       .  A
C816        C817   1.389       .  A
C817        H823   1.083       .  S
O818        C819   1.333       .  A
C819        C820   1.397       .  A
C820        H824   1.082       .  S
C825        C830   1.379       .  A
C825        C826   1.393       .  A
C825        O831   1.308       .  A
C826        C827   1.392       .  A
C826        H837   1.083       .  S
C827        C836   1.348       .  A
C827        C828   1.380       .  A
C828        C829   1.409       .  A
C828        O834   1.324       .  A
C829        C830   1.409       .  A
C829        H838   1.082       .  S
C830        C833   1.369       .  A
O831        C832   1.327       .  A
C832        C833   1.398       .  A
C833        H839   1.082       .  S
O834        C835   1.334       .  A
C835        C836   1.388       .  A
C836        H840   1.083       .  S
C841        C846   1.379       .  A
C841        C842   1.398       .  A
C841        O847   1.310       .  A
C842        C843   1.395       .  A
C842        H853   1.083       .  S
C843        C852   1.356       .  A
C843        C844   1.380       .  A
C844        C845   1.410       .  A
C844        O850   1.323       .  A
C845        C846   1.409       .  A
C845        H854   1.082       .  S
C846        C849   1.372       .  A
O847        C848   1.330       .  A
C848        C849   1.397       .  A
C849        H855   1.082       .  S
O850        C851   1.334       .  A
C851        C852   1.389       .  A
C852        H856   1.083       .  S
C857        C862   1.381       .  A
C857        C858   1.397       .  A
C857        O863   1.314       .  A
C858        C859   1.397       .  A
C858        H869   1.083       .  S
C859        C868   1.352       .  A
C859        C860   1.379       .  A
C860        C861   1.407       .  A
C860        O866   1.323       .  A
C861        C862   1.407       .  A
C861        H870   1.082       .  S
C862        C865   1.366       .  A
O863        C864   1.327       .  A
C864        C865   1.394       .  A
C865        H871   1.082       .  S
O866        C867   1.334       .  A
C867        C868   1.394       .  A
C868        H872   1.082       .  S
C873        C878   1.380       .  A
C873        C874   1.410       .  A
C873        O879   1.324       .  A
C874        C875   1.409       .  A
C874        H885   1.082       .  S
C875        C884   1.370       .  A
C875        C876   1.380       .  A
C876        C877   1.396       .  A
C876        O882   1.310       .  A
C877        C878   1.394       .  A
C877        H886   1.083       .  S
C878        C881   1.354       .  A
O879        C880   1.334       .  A
C880        C881   1.388       .  A
C881        H887   1.083       .  S
O882        C883   1.328       .  A
C883        C884   1.397       .  A
C884        H888   1.082       .  S
C889        C894   1.378       .  A
C889        C890   1.409       .  A
C889        O895   1.326       .  A
C890        C891   1.410       .  A
C890        H901   1.082       .  S
C891        C900   1.368       .  A
C891        C892   1.380       .  A
C892        C893   1.400       .  A
C892        O898   1.318       .  A
C893        C894   1.401       .  A
C893        H902   1.083       .  S
C894        C897   1.355       .  A
O895        C896   1.336       .  A
C896        C897   1.397       .  A
C897        H903   1.082       .  S
O898        C899   1.330       .  A
C899        C900   1.395       .  A
C900        H904   1.082       .  S
C905        C910   1.380       .  A
C905        C906   1.406       .  A
C905        O911   1.325       .  A
C906        C907   1.406       .  A
C906        H917   1.082       .  S
C907        C916   1.364       .  A
C907        C908   1.381       .  A
C908        C909   1.400       .  A
C908        O914   1.317       .  A
C909        C910   1.401       .  A
C909        H918   1.083       .  S
C910        C913   1.354       .  A
O911        C912   1.333       .  A
C912        C913   1.395       .  A
C913        H919   1.082       .  S
O914        C915   1.329       .  A
C915        C916   1.392       .  A
C916        H920   1.082       .  S
C921        C926   1.380   1_545  A
C921        C922   1.408       .  A
C921        O927   1.324       .  A
C922        C923   1.406       .  A
C922        H933   1.082       .  S
C923        C932   1.367       .  A
C923        C924   1.379       .  A
C924        C925   1.403   1_545  A
C924        O930   1.316       .  A
C925        C926   1.402       .  A
C925        H934   1.083       .  S
C926        C929   1.361       .  A
O927        C928   1.333   1_545  A
C928        C929   1.393       .  A
C929        H935   1.083       .  S
O930        C931   1.332       .  A
C931        C932   1.394       .  A
C932        H936   1.082       .  S
C937        C942   1.381       .  A
C937        C938   1.396       .  A
C937        O943   1.314       .  A
C938        C939   1.396       .  A
C938        H949   1.083       .  S
C939        C948   1.351       .  A
C939        C940   1.379       .  A
C940        C941   1.410       .  A
C940        O946   1.325       .  A
C941        C942   1.410       .  A
C941        H950   1.082       .  S
C942        C945   1.369       .  A
O943        C944   1.326       .  A
C944        C945   1.396       .  A
C945        H951   1.082       .  S
O946        C947   1.336       .  A
C947        C948   1.392       .  A
C948        H952   1.082       .  S
C953        C958   1.380       .  A
C953        C954   1.398       .  A
C953        O959   1.315       .  A
C954        C955   1.399       .  A
C954        H965   1.082       .  S
C955        C964   1.354       .  A
C955        C956   1.379       .  A
C956        C957   1.409       .  A
C956        O962   1.325       .  A
C957        C958   1.410       .  A
C957        H966   1.082       .  S
C958        C961   1.369       .  A
O959        C960   1.328       .  A
C960        C961   1.397       .  A
C961        H967   1.082       .  S
O962        C963   1.335       .  A
C963        C964   1.395       .  A
C964        H968   1.082       .  S
C969        C974   1.380       .  A
C969        C970   1.400   1_545  A
C969        O975   1.317       .  A
C970        C971   1.401       .  A
C970        H981   1.083   1_565  S
C971        C980   1.354       .  A
C971        C972   1.379       .  A
C972        C973   1.408       .  A
C972        O978   1.326       .  A
C973        C974   1.408   1_565  A
C973        H982   1.082       .  S
C974        C977   1.366       .  A
O975        C976   1.330       .  A
C976        C977   1.394       .  A
C977        H983   1.082       .  S
O978        C979   1.334       .  A
C979        C980   1.397       .  A
C980        H984   1.082       .  S
C985        C990   1.379       .  A
C985        C986   1.402       .  A
C985        O991   1.315       .  A
C986        C987   1.400       .  A
C986        H997   1.082       .  S
C987        C996   1.361       .  A
C987        C988   1.379       .  A
C988        C989   1.414       .  A
C988        O994   1.327       .  A
C989        C990   1.413       .  A
C989        H998   1.082       .  S
C990        C993   1.376       .  A
O991        C992   1.332       .  A
C992        C993   1.399       .  A
C993        H999   1.082       .  S
O994        C995   1.337       .  A
C995        C996   1.391       .  A
C996       H1000   1.083       .  S
C1001      C1006   1.379       .  A
C1001      C1002   1.412       .  A
C1001      O1007   1.325       .  A
C1002      C1003   1.410       .  A
C1002      H1013   1.082       .  S
C1003      C1012   1.372       .  A
C1003      C1004   1.379       .  A
C1004      C1005   1.399       .  A
C1004      O1010   1.314       .  A
C1005      C1006   1.398       .  A
C1005      H1014   1.082       .  S
C1006      C1009   1.358       .  A
O1007      C1008   1.336       .  A
C1008      C1009   1.390       .  A
C1009      H1015   1.083       .  S
O1010      C1011   1.330       .  A
C1011      C1012   1.399       .  A
C1012      H1016   1.082       .  S
C1017      C1022   1.378       .  A
C1017      C1018   1.411       .  A
C1017      O1023   1.328       .  A
C1018      C1019   1.412       .  A
C1018      H1029   1.082       .  S
C1019      C1028   1.370       .  A
C1019      C1020   1.380       .  A
C1020      C1021   1.401       .  A
C1020      O1026   1.319       .  A
C1021      C1022   1.402       .  A
C1021      H1030   1.082       .  S
C1022      C1025   1.357       .  A
O1023      C1024   1.336       .  A
C1024      C1025   1.398       .  A
C1025      H1031   1.082       .  S
O1026      C1027   1.330       .  A
C1027      C1028   1.398       .  A
C1028      H1032   1.082       .  S
C1033      C1038   1.379   1_545  A
C1033      C1034   1.413       .  A
C1033      O1039   1.326       .  A
C1034      C1035   1.412       .  A
C1034      H1045   1.082       .  S
C1035      C1044   1.375       .  A
C1035      C1036   1.378   1_545  A
C1036      C1037   1.397       .  A
C1036      O1042   1.310       .  A
C1037      C1038   1.394       .  A
C1037      H1046   1.083       .  S
C1038      C1041   1.354       .  A
O1039      C1040   1.336   1_545  A
C1040      C1041   1.389       .  A
C1041      H1047   1.083       .  S
O1042      C1043   1.330   1_565  A
C1043      C1044   1.400       .  A
C1044      H1048   1.082       .  S
C1049      C1054   1.379       .  A
C1049      C1050   1.396       .  A
C1049      O1055   1.310       .  A
C1050      C1051   1.394       .  A
C1050      H1061   1.083       .  S
C1051      C1060   1.352       .  A
C1051      C1052   1.380       .  A
C1052      C1053   1.406       .  A
C1052      O1058   1.321       .  A
C1053      C1054   1.406       .  A
C1053      H1062   1.082       .  S
C1054      C1057   1.367       .  A
O1055      C1056   1.330       .  A
C1056      C1057   1.396       .  A
C1057      H1063   1.082       .  S
O1058      C1059   1.332       .  A
C1059      C1060   1.388       .  A
C1060      H1064   1.083       .  S
C1065      C1070   1.378       .  A
C1065      C1066   1.397       .  A
C1065      O1071   1.310       .  A
C1066      C1067   1.394       .  A
C1066      H1077   1.083       .  S
C1067      C1076   1.354       .  A
C1067      C1068   1.379       .  A
C1068      C1069   1.412       .  A
C1068      O1074   1.324       .  A
C1069      C1070   1.411       .  A
C1069      H1078   1.082       .  S
C1070      C1073   1.375       .  A
O1071      C1072   1.330       .  A
C1072      C1073   1.400       .  A
C1073      H1079   1.082       .  S
O1074      C1075   1.335       .  A
C1075      C1076   1.388       .  A
C1076      H1080   1.083       .  S
C1081      C1086   1.379       .  A
C1081      C1082   1.396       .  A
C1081      O1087   1.311       .  A
C1082      C1083   1.395       .  A
C1082      H1093   1.083       .  S
C1083      C1092   1.351       .  A
C1083      C1084   1.380       .  A
C1084      C1085   1.409       .  A
C1084      O1090   1.324       .  A
C1085      C1086   1.408       .  A
C1085      H1094   1.082       .  S
C1086      C1089   1.367       .  A
O1087      C1088   1.330       .  A
C1088      C1089   1.397       .  A
C1089      H1095   1.082       .  S
O1090      C1091   1.334   1_655  A
C1091      C1092   1.388   1_455  A
C1092      H1096   1.083       .  S
C1097      C1102   1.380       .  A
C1097      C1098   1.399       .  A
C1097      O1103   1.317       .  A
C1098      C1099   1.399       .  A
C1098      H1109   1.082       .  S
C1099      C1108   1.354       .  A
C1099      C1100   1.378       .  A
C1100      C1101   1.410       .  A
C1100      O1106   1.326       .  A
C1101      C1102   1.411       .  A
C1101      H1110   1.082       .  S
C1102      C1105   1.370       .  A
O1103      C1104   1.330       .  A
C1104      C1105   1.397       .  A
C1105      H1111   1.082       .  S
O1106      C1107   1.336       .  A
C1107      C1108   1.395       .  A
C1108      H1112   1.082       .  S
C1113      C1118   1.381       .  A
C1113      C1114   1.397       .  A
C1113      O1119   1.315       .  A
C1114      C1115   1.398       .  A
C1114      H1125   1.082       .  S
C1115      C1124   1.354       .  A
C1115      C1116   1.379       .  A
C1116      C1117   1.410       .  A
C1116      O1122   1.325       .  A
C1117      C1118   1.409       .  A
C1117      H1126   1.082       .  S
C1118      C1121   1.368       .  A
O1119      C1120   1.326       .  A
C1120      C1121   1.396       .  A
C1121      H1127   1.083       .  S
O1122      C1123   1.335       .  A
C1123      C1124   1.393       .  A
C1124      H1128   1.082   1_455  S
C1129      C1134   1.380       .  A
C1129      C1130   1.409       .  A
C1129      O1135   1.321       .  A
C1130      C1131   1.408       .  A
C1130      H1141   1.082       .  S
C1131      C1140   1.370       .  A
C1131      C1132   1.380       .  A
C1132      C1133   1.397       .  A
C1132      O1138   1.310   1_655  A
C1133      C1134   1.394       .  A
C1133      H1142   1.082   1_655  S
C1134      C1137   1.355       .  A
O1135      C1136   1.333       .  A
C1136      C1137   1.387       .  A
C1137      H1143   1.083       .  S
O1138      C1139   1.328       .  A
C1139      C1140   1.396   1_455  A
C1140      H1144   1.082       .  S
C1145      C1150   1.381       .  A
C1145      C1146   1.395       .  A
C1145      O1151   1.313       .  A
C1146      C1147   1.396       .  A
C1146      H1157   1.082       .  S
C1147      C1156   1.351       .  A
C1147      C1148   1.378       .  A
C1148      C1149   1.410       .  A
C1148      O1154   1.325       .  A
C1149      C1150   1.410       .  A
C1149      H1158   1.082       .  S
C1150      C1153   1.368       .  A
O1151      C1152   1.326       .  A
C1152      C1153   1.397       .  A
C1153      H1159   1.082       .  S
O1154      C1155   1.336       .  A
C1155      C1156   1.394       .  A
C1156      H1160   1.082       .  S
C1161      C1166   1.382       .  A
C1161      C1162   1.395       .  A
C1161      O1167   1.314       .  A
C1162      C1163   1.396       .  A
C1162      H1173   1.083       .  S
C1163      C1172   1.349       .  A
C1163      C1164   1.379       .  A
C1164      C1165   1.406       .  A
C1164      O1170   1.323       .  A
C1165      C1166   1.407       .  A
C1165      H1174   1.082       .  S
C1166      C1169   1.363       .  A
O1167      C1168   1.327       .  A
C1168      C1169   1.393       .  A
C1169      H1175   1.082       .  S
O1170      C1171   1.334       .  A
C1171      C1172   1.392       .  A
C1172      H1176   1.082       .  S
C1177      C1182   1.381       .  A
C1177      C1178   1.396       .  A
C1177      O1183   1.314       .  A
C1178      C1179   1.396       .  A
C1178      H1189   1.083       .  S
C1179      C1188   1.350       .  A
C1179      C1180   1.378       .  A
C1180      C1181   1.410       .  A
C1180      O1186   1.326       .  A
C1181      C1182   1.410       .  A
C1181      H1190   1.082       .  S
C1182      C1185   1.368       .  A
O1183      C1184   1.327       .  A
C1184      C1185   1.395       .  A
C1185      H1191   1.082       .  S
O1186      C1187   1.336       .  A
C1187      C1188   1.394       .  A
C1188      H1192   1.082       .  S
C1193      C1198   1.379       .  A
C1193      C1194   1.396       .  A
C1193      O1199   1.311       .  A
C1194      C1195   1.394       .  A
C1194      H1205   1.083       .  S
C1195      C1204   1.352       .  A
C1195      C1196   1.380       .  A
C1196      C1197   1.409       .  A
C1196      O1202   1.323       .  A
C1197      C1198   1.408       .  A
C1197      H1206   1.082       .  S
C1198      C1201   1.368       .  A
O1199      C1200   1.329       .  A
C1200      C1201   1.397       .  A
C1201      H1207   1.082       .  S
O1202      C1203   1.334       .  A
C1203      C1204   1.388       .  A
C1204      H1208   1.083       .  S
C1209      C1214   1.380       .  A
C1209      C1210   1.411       .  A
C1209      O1215   1.326       .  A
C1210      C1211   1.409       .  A
C1210      H1221   1.082       .  S
C1211      C1220   1.369       .  A
C1211      C1212   1.379       .  A
C1212      C1213   1.399   1_554  A
C1212      O1218   1.314   1_554  A
C1213      C1214   1.399   1_556  A
C1213      H1222   1.083       .  S
C1214      C1217   1.357       .  A
O1215      C1216   1.335       .  A
C1216      C1217   1.391       .  A
C1217      H1223   1.083   1_554  S
O1218      C1219   1.330   1_556  A
C1219      C1220   1.396       .  A
C1220      H1224   1.082       .  S
C1225      C1230   1.379       .  A
C1225      C1226   1.399       .  A
C1225      O1231   1.311       .  A
C1226      C1227   1.397       .  A
C1226      H1237   1.083       .  S
C1227      C1236   1.357       .  A
C1227      C1228   1.379       .  A
C1228      C1229   1.411       .  A
C1228      O1234   1.324       .  A
C1229      C1230   1.409       .  A
C1229      H1238   1.082       .  S
C1230      C1233   1.371       .  A
O1231      C1232   1.330       .  A
C1232      C1233   1.397       .  A
C1233      H1239   1.082       .  S
O1234      C1235   1.335       .  A
C1235      C1236   1.390       .  A
C1236      H1240   1.083       .  S
C1241      C1246   1.381       .  A
C1241      C1242   1.398       .  A
C1241      O1247   1.316       .  A
C1242      C1243   1.398       .  A
C1242      H1253   1.083       .  S
C1243      C1252   1.352       .  A
C1243      C1244   1.378       .  A
C1244      C1245   1.410       .  A
C1244      O1250   1.326       .  A
C1245      C1246   1.410       .  A
C1245      H1254   1.082       .  S
C1246      C1249   1.368       .  A
O1247      C1248   1.328       .  A
C1248      C1249   1.396       .  A
C1249      H1255   1.082       .  S
O1250      C1251   1.336       .  A
C1251      C1252   1.396       .  A
C1252      H1256   1.082       .  S
C1257      C1262   1.379       .  A
C1257      C1258   1.408       .  A
C1257      O1263   1.325       .  A
C1258      C1259   1.408       .  A
C1258      H1269   1.082       .  S
C1259      C1268   1.364       .  A
C1259      C1260   1.381       .  A
C1260      C1261   1.396       .  A
C1260      O1266   1.315       .  A
C1261      C1262   1.398       .  A
C1261      H1270   1.082       .  S
C1262      C1265   1.351       .  A
O1263      C1264   1.335       .  A
C1264      C1265   1.393       .  A
C1265      H1271   1.082       .  S
O1266      C1267   1.327       .  A
C1267      C1268   1.394       .  A
C1268      H1272   1.082       .  S
C1273      C1278   1.381       .  A
C1273      C1274   1.397       .  A
C1273      O1279   1.315       .  A
C1274      C1275   1.398       .  A
C1274      H1285   1.082       .  S
C1275      C1284   1.353       .  A
C1275      C1276   1.380       .  A
C1276      C1277   1.407       .  A
C1276      O1282   1.324       .  A
C1277      C1278   1.407       .  A
C1277      H1286   1.082       .  S
C1278      C1281   1.364       .  A
O1279      C1280   1.328       .  A
C1280      C1281   1.393       .  A
C1281      H1287   1.082       .  S
O1282      C1283   1.334       .  A
C1283      C1284   1.393       .  A
C1284      H1288   1.082       .  S
C1289      C1294   1.381       .  A
C1289      C1290   1.397       .  A
C1289      O1295   1.317       .  A
C1290      C1291   1.398       .  A
C1290      H1301   1.083       .  S
C1291      C1300   1.349       .  A
C1291      C1292   1.378       .  A
C1292      C1293   1.410       .  A
C1292      O1298   1.328       .  A
C1293      C1294   1.412       .  A
C1293      H1302   1.082       .  S
C1294      C1297   1.368       .  A
O1295      C1296   1.328       .  A
C1296      C1297   1.397       .  A
C1297      H1303   1.082       .  S
O1298      C1299   1.336       .  A
C1299      C1300   1.395       .  A
C1300      H1304   1.082       .  S
C1305      C1310   1.380       .  A
C1305      C1306   1.409       .  A
C1305      O1311   1.323       .  A
C1306      C1307   1.408       .  A
C1306      H1317   1.082       .  S
C1307      C1316   1.370       .  A
C1307      C1308   1.378       .  A
C1308      C1309   1.399       .  A
C1308      O1314   1.312       .  A
C1309      C1310   1.397       .  A
C1309      H1318   1.083       .  S
C1310      C1313   1.356       .  A
O1311      C1312   1.333   1_655  A
C1312      C1313   1.390   1_455  A
C1313      H1319   1.083       .  S
O1314      C1315   1.332       .  A
C1315      C1316   1.397       .  A
C1316      H1320   1.082       .  S
C1321      C1326   1.381       .  A
C1321      C1322   1.398       .  A
C1321      O1327   1.315       .  A
C1322      C1323   1.398       .  A
C1322      H1333   1.083       .  S
C1323      C1332   1.355       .  A
C1323      C1324   1.379       .  A
C1324      C1325   1.409       .  A
C1324      O1330   1.324       .  A
C1325      C1326   1.408       .  A
C1325      H1334   1.082       .  S
C1326      C1329   1.368       .  A
O1327      C1328   1.328       .  A
C1328      C1329   1.395       .  A
C1329      H1335   1.082       .  S
O1330      C1331   1.334       .  A
C1331      C1332   1.395       .  A
C1332      H1336   1.082       .  S
C1337      C1342   1.380       .  A
C1337      C1338   1.399       .  A
C1337      O1343   1.317       .  A
C1338      C1339   1.400       .  A
C1338      H1349   1.083       .  S
C1339      C1348   1.355       .  A
C1339      C1340   1.379       .  A
C1340      C1341   1.408       .  A
C1340      O1346   1.325       .  A
C1341      C1342   1.408       .  A
C1341      H1350   1.082       .  S
C1342      C1345   1.366       .  A
O1343      C1344   1.329       .  A
C1344      C1345   1.394       .  A
C1345      H1351   1.082       .  S
O1346      C1347   1.335       .  A
C1347      C1348   1.394       .  A
C1348      H1352   1.082       .  S
C1353      C1358   1.380       .  A
C1353      C1354   1.410   1_545  A
C1353      O1359   1.324       .  A
C1354      C1355   1.409       .  A
C1354      H1365   1.082       .  S
C1355      C1364   1.371       .  A
C1355      C1356   1.379       .  A
C1356      C1357   1.396       .  A
C1356      O1362   1.310       .  A
C1357      C1358   1.395   1_565  A
C1357      H1366   1.083   1_565  S
C1358      C1361   1.353       .  A
O1359      C1360   1.335       .  A
C1360      C1361   1.388       .  A
C1361      H1367   1.083       .  S
O1362      C1363   1.330       .  A
C1363      C1364   1.397       .  A
C1364      H1368   1.082       .  S
C1369      C1374   1.381       .  A
C1369      C1370   1.392   1_655  A
C1369      O1375   1.313       .  A
C1370      C1371   1.393       .  A
C1370      H1381   1.083       .  S
C1371      C1380   1.345       .  A
C1371      C1372   1.377   1_455  A
C1372      C1373   1.411       .  A
C1372      O1378   1.328       .  A
C1373      C1374   1.412       .  A
C1373      H1382   1.082       .  S
C1374      C1377   1.368       .  A
O1375      C1376   1.326       .  A
C1376      C1377   1.396       .  A
C1377      H1383   1.082       .  S
O1378      C1379   1.338   1_655  A
C1379      C1380   1.392       .  A
C1380      H1384   1.081       .  S
C1385      C1390   1.381       .  A
C1385      C1386   1.400       .  A
C1385      O1391   1.318       .  A
C1386      C1387   1.399       .  A
C1386      H1397   1.082       .  S
C1387      C1396   1.354       .  A
C1387      C1388   1.380       .  A
C1388      C1389   1.407       .  A
C1388      O1394   1.322       .  A
C1389      C1390   1.407       .  A
C1389      H1398   1.082       .  S
C1390      C1393   1.366       .  A
O1391      C1392   1.329       .  A
C1392      C1393   1.395       .  A
C1393      H1399   1.082       .  S
O1394      C1395   1.333       .  A
C1395      C1396   1.393       .  A
C1396      H1400   1.082       .  S
C1401      C1406   1.379       .  A
C1401      C1402   1.407       .  A
C1401      O1407   1.324       .  A
C1402      C1403   1.408       .  A
C1402      H1413   1.082       .  S
C1403      C1412   1.365       .  A
C1403      C1404   1.381       .  A
C1404      C1405   1.395       .  A
C1404      O1410   1.314       .  A
C1405      C1406   1.395       .  A
C1405      H1414   1.083       .  S
C1406      C1409   1.348       .  A
O1407      C1408   1.334       .  A
C1408      C1409   1.393       .  A
C1409      H1415   1.082   1_455  S
O1410      C1411   1.327       .  A
C1411      C1412   1.394       .  A
C1412      H1416   1.082       .  S
C1417      C1422   1.379       .  A
C1417      C1418   1.413       .  A
C1417      O1423   1.327       .  A
C1418      C1419   1.412       .  A
C1418      H1429   1.082       .  S
C1419      C1428   1.374       .  A
C1419      C1420   1.378       .  A
C1420      C1421   1.401       .  A
C1420      O1426   1.315       .  A
C1421      C1422   1.400       .  A
C1421      H1430   1.082       .  S
C1422      C1425   1.358       .  A
O1423      C1424   1.336       .  A
C1424      C1425   1.391       .  A
C1425      H1431   1.083       .  S
O1426      C1427   1.332       .  A
C1427      C1428   1.400       .  A
C1428      H1432   1.082       .  S
C1433      C1438   1.379       .  A
C1433      C1434   1.409       .  A
C1433      O1439   1.325       .  A
C1434      C1435   1.409       .  A
C1434      H1445   1.082       .  S
C1435      C1444   1.368       .  A
C1435      C1436   1.381       .  A
C1436      C1437   1.399       .  A
C1436      O1442   1.317       .  A
C1437      C1438   1.399       .  A
C1437      H1446   1.082       .  S
C1438      C1441   1.355       .  A
O1439      C1440   1.335       .  A
C1440      C1441   1.393       .  A
C1441      H1447   1.082       .  S
O1442      C1443   1.329       .  A
C1443      C1444   1.396       .  A
C1444      H1448   1.082       .  S
C1449      C1454   1.379   1_565  A
C1449      C1450   1.412       .  A
C1449      O1455   1.325       .  A
C1450      C1451   1.410   1_565  A
C1450      H1461   1.082       .  S
C1451      C1460   1.373       .  A
C1451      C1452   1.378       .  A
C1452      C1453   1.402       .  A
C1452      O1458   1.315       .  A
C1453      C1454   1.400       .  A
C1453      H1462   1.082       .  S
C1454      C1457   1.360       .  A
O1455      C1456   1.336       .  A
C1456      C1457   1.391   1_565  A
C1457      H1463   1.083       .  S
O1458      C1459   1.333       .  A
C1459      C1460   1.398       .  A
C1460      H1464   1.082   1_545  S
C1465      C1470   1.379       .  A
C1465      C1466   1.393       .  A
C1465      O1471   1.308       .  A
C1466      C1467   1.392       .  A
C1466      H1477   1.083       .  S
C1467      C1476   1.349       .  A
C1467      C1468   1.380       .  A
C1468      C1469   1.410       .  A
C1468      O1474   1.324       .  A
C1469      C1470   1.410       .  A
C1469      H1478   1.082       .  S
C1470      C1473   1.370       .  A
O1471      C1472   1.328       .  A
C1472      C1473   1.399       .  A
C1473      H1479   1.082       .  S
O1474      C1475   1.335       .  A
C1475      C1476   1.387       .  A
C1476      H1480   1.083       .  S
C1481      C1486   1.379       .  A
C1481      C1482   1.407       .  A
C1481      O1487   1.325       .  A
C1482      C1483   1.407   1_565  A
C1482      H1493   1.082       .  S
C1483      C1492   1.366       .  A
C1483      C1484   1.380       .  A
C1484      C1485   1.399   1_545  A
C1484      O1490   1.316       .  A
C1485      C1486   1.400       .  A
C1485      H1494   1.083       .  S
C1486      C1489   1.353       .  A
O1487      C1488   1.334       .  A
C1488      C1489   1.394       .  A
C1489      H1495   1.082       .  S
O1490      C1491   1.330       .  A
C1491      C1492   1.393       .  A
C1492      H1496   1.082       .  S
C1497      C1502   1.380       .  A
C1497      C1498   1.408       .  A
C1497      O1503   1.323       .  A
C1498      C1499   1.407       .  A
C1498      H1509   1.082       .  S
C1499      C1508   1.368       .  A
C1499      C1500   1.379       .  A
C1500      C1501   1.400       .  A
C1500      O1506   1.314       .  A
C1501      C1502   1.399       .  A
C1501      H1510   1.083       .  S
C1502      C1505   1.356       .  A
O1503      C1504   1.332       .  A
C1504      C1505   1.391       .  A
C1505      H1511   1.083       .  S
O1506      C1507   1.332       .  A
C1507      C1508   1.396       .  A
C1508      H1512   1.082       .  S
C1513      C1518   1.379       .  A
C1513      C1514   1.396       .  A
C1513      O1519   1.311       .  A
C1514      C1515   1.395       .  A
C1514      H1525   1.083       .  S
C1515      C1524   1.353       .  A
C1515      C1516   1.380       .  A
C1516      C1517   1.410       .  A
C1516      O1522   1.324       .  A
C1517      C1518   1.408       .  A
C1517      H1526   1.082   1_655  S
C1518      C1521   1.370   1_655  A
O1519      C1520   1.330       .  A
C1520      C1521   1.397   1_655  A
C1521      H1527   1.082       .  S
O1522      C1523   1.334       .  A
C1523      C1524   1.389       .  A
C1524      H1528   1.083       .  S
C1529      C1534   1.380       .  A
C1529      C1530   1.407       .  A
C1529      O1535   1.321       .  A
C1530      C1531   1.406       .  A
C1530      H1541   1.082       .  S
C1531      C1540   1.367       .  A
C1531      C1532   1.379       .  A
C1532      C1533   1.400       .  A
C1532      O1538   1.313       .  A
C1533      C1534   1.398       .  A
C1533      H1542   1.082       .  S
C1534      C1537   1.357       .  A
O1535      C1536   1.332       .  A
C1536      C1537   1.390       .  A
C1537      H1543   1.083       .  S
O1538      C1539   1.331       .  A
C1539      C1540   1.395       .  A
C1540      H1544   1.082       .  S
C1545      C1550   1.379       .  A
C1545      C1546   1.408       .  A
C1545      O1551   1.324       .  A
C1546      C1547   1.408       .  A
C1546      H1557   1.082       .  S
C1547      C1556   1.367       .  A
C1547      C1548   1.380       .  A
C1548      C1549   1.400       .  A
C1548      O1554   1.316       .  A
C1549      C1550   1.400       .  A
C1549      H1558   1.082       .  S
C1550      C1553   1.356       .  A
O1551      C1552   1.334       .  A
C1552      C1553   1.396       .  A
C1553      H1559   1.082       .  S
O1554      C1555   1.329       .  A
C1555      C1556   1.394       .  A
C1556      H1560   1.082       .  S
C1561      C1566   1.381       .  A
C1561      C1562   1.398       .  A
C1561      O1567   1.316       .  A
C1562      C1563   1.398       .  A
C1562      H1573   1.082       .  S
C1563      C1572   1.354       .  A
C1563      C1564   1.380       .  A
C1564      C1565   1.407       .  A
C1564      O1570   1.323       .  A
C1565      C1566   1.407       .  A
C1565      H1574   1.082       .  S
C1566      C1569   1.366       .  A
O1567      C1568   1.328       .  A
C1568      C1569   1.394       .  A
C1569      H1575   1.082       .  S
O1570      C1571   1.333       .  A
C1571      C1572   1.392       .  A
C1572      H1576   1.082       .  S
C1577      C1582   1.379       .  A
C1577      C1578   1.399       .  A
C1577      O1583   1.312       .  A
C1578      C1579   1.397       .  A
C1578      H1589   1.083       .  S
C1579      C1588   1.356       .  A
C1579      C1580   1.380       .  A
C1580      C1581   1.407       .  A
C1580      O1586   1.322       .  A
C1581      C1582   1.406       .  A
C1581      H1590   1.082       .  S
C1582      C1585   1.368       .  A
O1583      C1584   1.331       .  A
C1584      C1585   1.395       .  A
C1585      H1591   1.082       .  S
O1586      C1587   1.332       .  A
C1587      C1588   1.390       .  A
C1588      H1592   1.083       .  S
C1593      C1598   1.381       .  A
C1593      C1594   1.397   1_554  A
C1593      O1599   1.316       .  A
C1594      C1595   1.397   1_556  A
C1594      H1605   1.083       .  S
C1595      C1604   1.350   1_554  A
C1595      C1596   1.379       .  A
C1596      C1597   1.410       .  A
C1596      O1602   1.326       .  A
C1597      C1598   1.411       .  A
C1597      H1606   1.082       .  S
C1598      C1601   1.369       .  A
O1599      C1600   1.328       .  A
C1600      C1601   1.397       .  A
C1601      H1607   1.082       .  S
O1602      C1603   1.335       .  A
C1603      C1604   1.394   1_554  A
C1604      H1608   1.082       .  S
C1609      C1614   1.380       .  A
C1609      C1610   1.398       .  A
C1609      O1615   1.314       .  A
C1610      C1611   1.398       .  A
C1610      H1621   1.082       .  S
C1611      C1620   1.355   1_455  A
C1611      C1612   1.379       .  A
C1612      C1613   1.412       .  A
C1612      O1618   1.326   1_455  A
C1613      C1614   1.411       .  A
C1613      H1622   1.082   1_455  S
C1614      C1617   1.371       .  A
O1615      C1616   1.328       .  A
C1616      C1617   1.397       .  A
C1617      H1623   1.082       .  S
O1618      C1619   1.336       .  A
C1619      C1620   1.394       .  A
C1620      H1624   1.082   1_655  S
C1625      C1630   1.380       .  A
C1625      C1626   1.403       .  A
C1625      O1631   1.320       .  A
C1626      C1627   1.403       .  A
C1626      H1637   1.082       .  S
C1627      C1636   1.359       .  A
C1627      C1628   1.380       .  A
C1628      C1629   1.407       .  A
C1628      O1634   1.323       .  A
C1629      C1630   1.407       .  A
C1629      H1638   1.082       .  S
C1630      C1633   1.366       .  A
O1631      C1632   1.332       .  A
C1632      C1633   1.393       .  A
C1633      H1639   1.082       .  S
O1634      C1635   1.333       .  A
C1635      C1636   1.394       .  A
C1636      H1640   1.082       .  S
C1641      C1646   1.379       .  A
C1641      C1642   1.406       .  A
C1641      O1647   1.324       .  A
C1642      C1643   1.406       .  A
C1642      H1653   1.082       .  S
C1643      C1652   1.363       .  A
C1643      C1644   1.381       .  A
C1644      C1645   1.399       .  A
C1644      O1650   1.318       .  A
C1645      C1646   1.400       .  A
C1645      H1654   1.083       .  S
C1646      C1649   1.352       .  A
O1647      C1648   1.333       .  A
C1648      C1649   1.394       .  A
C1649      H1655   1.082       .  S
O1650      C1651   1.330       .  A
C1651      C1652   1.392       .  A
C1652      H1656   1.082       .  S
C1657      C1662   1.378       .  A
C1657      C1658   1.409       .  A
C1657      O1663   1.328       .  A
C1658      C1659   1.410       .  A
C1658      H1669   1.082       .  S
C1659      C1668   1.365       .  A
C1659      C1660   1.381       .  A
C1660      C1661   1.397       .  A
C1660      O1666   1.319       .  A
C1661      C1662   1.399       .  A
C1661      H1670   1.082       .  S
C1662      C1665   1.350       .  A
O1663      C1664   1.336       .  A
C1664      C1665   1.395       .  A
C1665      H1671   1.082       .  S
O1666      C1667   1.329       .  A
C1667      C1668   1.396       .  A
C1668      H1672   1.082       .  S
C1673      C1678   1.379       .  A
C1673      C1674   1.414       .  A
C1673      O1679   1.326       .  A
C1674      C1675   1.413       .  A
C1674      H1685   1.082       .  S
C1675      C1684   1.375       .  A
C1675      C1676   1.378       .  A
C1676      C1677   1.395       .  A
C1676      O1682   1.309       .  A
C1677      C1678   1.393       .  A
C1677      H1686   1.082       .  S
C1678      C1681   1.353       .  A
O1679      C1680   1.337       .  A
C1680      C1681   1.388       .  A
C1681      H1687   1.083       .  S
O1682      C1683   1.328       .  A
C1683      C1684   1.401       .  A
C1684      H1688   1.082       .  S
C1689      C1694   1.380       .  A
C1689      C1690   1.394       .  A
C1689      O1695   1.309       .  A
C1690      C1691   1.392       .  A
C1690      H1701   1.082       .  S
C1691      C1700   1.351       .  A
C1691      C1692   1.380       .  A
C1692      C1693   1.410       .  A
C1692      O1698   1.323       .  A
C1693      C1694   1.409       .  A
C1693      H1702   1.082       .  S
C1694      C1697   1.369       .  A
O1695      C1696   1.327       .  A
C1696      C1697   1.398       .  A
C1697      H1703   1.082       .  S
O1698      C1699   1.334       .  A
C1699      C1700   1.387       .  A
C1700      H1704   1.083       .  S
C1705      C1710   1.379       .  A
C1705      C1706   1.393       .  A
C1705      O1711   1.308       .  A
C1706      C1707   1.392       .  A
C1706      H1717   1.083       .  S
C1707      C1716   1.348       .  A
C1707      C1708   1.380       .  A
C1708      C1709   1.409       .  A
C1708      O1714   1.324       .  A
C1709      C1710   1.408       .  A
C1709      H1718   1.082       .  S
C1710      C1713   1.368       .  A
O1711      C1712   1.327       .  A
C1712      C1713   1.397       .  A
C1713      H1719   1.082       .  S
O1714      C1715   1.334       .  A
C1715      C1716   1.388       .  A
C1716      H1720   1.083       .  S
C1721      C1726   1.381   1_565  A
C1721      C1722   1.398       .  A
C1721      O1727   1.316   1_565  A
C1722      C1723   1.399       .  A
C1722      H1733   1.083       .  S
C1723      C1732   1.352       .  A
C1723      C1724   1.380       .  A
C1724      C1725   1.404       .  A
C1724      O1730   1.322       .  A
C1725      C1726   1.403   1_565  A
C1725      H1734   1.082       .  S
C1726      C1729   1.361       .  A
O1727      C1728   1.329       .  A
C1728      C1729   1.390       .  A
C1729      H1735   1.082       .  S
O1730      C1731   1.332       .  A
C1731      C1732   1.394       .  A
C1732      H1736   1.082       .  S
C1737      C1742   1.381       .  A
C1737      C1738   1.392       .  A
C1737      O1743   1.312   1_655  A
C1738      C1739   1.393       .  A
C1738      H1749   1.083       .  S
C1739      C1748   1.347       .  A
C1739      C1740   1.379       .  A
C1740      C1741   1.408       .  A
C1740      O1746   1.324       .  A
C1741      C1742   1.408       .  A
C1741      H1750   1.082       .  S
C1742      C1745   1.365       .  A
O1743      C1744   1.325       .  A
C1744      C1745   1.395   1_455  A
C1745      H1751   1.082       .  S
O1746      C1747   1.335       .  A
C1747      C1748   1.390       .  A
C1748      H1752   1.082       .  S
C1753      C1758   1.378       .  A
C1753      C1754   1.400       .  A
C1753      O1759   1.314       .  A
C1754      C1755   1.399       .  A
C1754      H1765   1.083       .  S
C1755      C1764   1.357       .  A
C1755      C1756   1.379   1_545  A
C1756      C1757   1.410       .  A
C1756      O1762   1.325       .  A
C1757      C1758   1.410   1_565  A
C1757      H1766   1.082       .  S
C1758      C1761   1.372       .  A
O1759      C1760   1.332       .  A
C1760      C1761   1.397       .  A
C1761      H1767   1.082       .  S
O1762      C1763   1.335       .  A
C1763      C1764   1.391   1_565  A
C1764      H1768   1.083       .  S
C1769      C1774   1.379       .  A
C1769      C1770   1.401       .  A
C1769      O1775   1.313       .  A
C1770      C1771   1.400       .  A
C1770      H1781   1.082       .  S
C1771      C1780   1.360       .  A
C1771      C1772   1.380       .  A
C1772      C1773   1.409       .  A
C1772      O1778   1.323       .  A
C1773      C1774   1.408       .  A
C1773      H1782   1.082       .  S
C1774      C1777   1.370       .  A
O1775      C1776   1.331       .  A
C1776      C1777   1.397       .  A
C1777      H1783   1.082       .  S
O1778      C1779   1.334       .  A
C1779      C1780   1.393       .  A
C1780      H1784   1.083       .  S
C1785      C1790   1.379       .  A
C1785      C1786   1.401       .  A
C1785      O1791   1.314       .  A
C1786      C1787   1.400       .  A
C1786      H1797   1.082       .  S
C1787      C1796   1.360       .  A
C1787      C1788   1.380       .  A
C1788      C1789   1.410       .  A
C1788      O1794   1.324       .  A
C1789      C1790   1.409       .  A
C1789      H1798   1.082       .  S
C1790      C1793   1.371       .  A
O1791      C1792   1.331       .  A
C1792      C1793   1.397       .  A
C1793      H1799   1.082       .  S
O1794      C1795   1.334       .  A
C1795      C1796   1.392       .  A
C1796      H1800   1.083       .  S
