geometry optimzed in LAMMPS
_audit_creation_date              2020-11-30 
_audit_creation_method            'lammps2cif' 
_symmetry_space_group_name_H-M    'P1' 
_symmetry_Int_Tables_number       1 
_symmetry_cell_setting            triclinic 
loop_ 
_symmetry_equiv_pos_as_xyz 
  x,y,z 
_cell_length_a                    38.50480901 
_cell_length_b                    38.79184173963807 
_cell_length_c                    52.9470095903992 
_cell_angle_alpha                 89.68206277536834 
_cell_angle_beta                  90.3383635830799 
_cell_angle_gamma                 89.98911811458174 
loop_ 
_atom_site_label 
_atom_site_type_symbol 
_atom_site_fract_x 
_atom_site_fract_y 
_atom_site_fract_z 
_atom_site_charge 
N1          N  0.89249837  0.90380099  0.00360896    -0.35500
N2          N  0.95640487  0.90908331  0.03305483    -0.56100
N3          N  0.96787247  0.97821511  0.01408724    -0.35500
N4          N  0.90160113  0.97423386  0.98712298    -0.56100
C5          C  0.88781213  0.87900286  0.02133992     0.28100
C6          C  0.86079625  0.91192297  0.99427046     0.28100
C7          C  0.99346508  0.97569465  0.03166283     0.28000
C8          C  0.96106229  0.01217666  0.01051134     0.28000
C9          C  0.94871201  0.87524989  0.03594097     0.36700
C10         C  0.99051996  0.91250729  0.03882316     0.36700
C11         C  0.87530237  0.96534596  0.97140418     0.36700
C12         C  0.91216809  0.00593809  0.97982435     0.36700
C13         C  0.85260629  0.87207725  0.02371884    -0.20800
C14         C  0.83559206  0.89253987  0.00632838    -0.20800
C15         C  0.00347640  0.00847153  0.03907004    -0.20800
C16         C  0.98298074  0.03149422  0.02575242    -0.20800
C17         C  0.97801352  0.85707236  0.04340112    -0.21900
C18         C  0.00455204  0.88060586  0.04507459    -0.21900
C19         C  0.86939072  0.99135646  0.95385324    -0.21900
C20         C  0.89240204  0.01729853  0.95943836    -0.21900
C21         C  0.91494273  0.86124657  0.03401293    -0.17200
C22         C  0.85435378  0.93580323  0.97461689    -0.17200
C23         C  0.93688740  0.02607855  0.99291110    -0.17200
C24         C  0.00826775  0.94439836  0.04061769    -0.17200
H25         H  0.84030317  0.85415072  0.03657540     0.15700
H26         H  0.80780322  0.89348410  0.00319211     0.15700
H27         H  0.02319376  0.01515502  0.05284273     0.15700
H28         H  0.98425761  0.05930279  0.02703239     0.15700
H29         H  0.98001101  0.82973830  0.04736562     0.14000
H30         H  0.03101931  0.87484756  0.05063215     0.14000
H31         H  0.84977509  0.99223022  0.93915127     0.14000
H32         H  0.89403891  0.04189463  0.94977836     0.14000
H33         H  0.91614859  0.91203312  0.99626728     0.27200
H34         H  0.95795730  0.95794551  0.00353386     0.27200
N35         N  0.58679355  0.37795225  0.74073005    -0.35500
N36         N  0.58975649  0.44591128  0.76328559    -0.56100
N37         N  0.51829451  0.45754138  0.74713110    -0.35500
N38         N  0.51801817  0.39129417  0.72125998    -0.56100
C39         C  0.62066890  0.38122746  0.74692567     0.28100
C40         C  0.58472218  0.35419268  0.72216276     0.28100
C41         C  0.52878753  0.49019232  0.75210672     0.28000
C42         C  0.48948924  0.45973755  0.73246016     0.28000
C43         C  0.61646230  0.43068390  0.77578570     0.36700
C44         C  0.58209329  0.47498366  0.77604480     0.36700
C45         C  0.52134811  0.35764356  0.71521732     0.36700
C46         C  0.48362783  0.39821491  0.72095805     0.36700
C47         C  0.64054982  0.35972809  0.73203101    -0.20800
C48         C  0.61788861  0.34304571  0.71605176    -0.20800
C49         C  0.50664465  0.51328262  0.74000420    -0.20800
C50         C  0.48150211  0.49404736  0.72799251    -0.20800
C51         C  0.62562346  0.45010038  0.79671017    -0.21900
C52         C  0.60423536  0.47850416  0.79659678    -0.21900
C53         C  0.48903357  0.34309740  0.71094996    -0.21900
C54         C  0.46506148  0.36868373  0.71494771    -0.21900
C55         C  0.63341651  0.40047718  0.76741694    -0.17200
C56         C  0.55335069  0.34047670  0.71239763    -0.17200
C57         C  0.46939429  0.43156316  0.72399671    -0.17200
C58         C  0.55658236  0.49920762  0.76851426    -0.17200
H59         H  0.66843902  0.35628854  0.73278550     0.15700
H60         H  0.62507829  0.32427873  0.70197732     0.15700
H61         H  0.50818587  0.54111663  0.73982383     0.15700
H62         H  0.46003074  0.50413469  0.71692579     0.15700
H63         H  0.64563488  0.44471310  0.81058584     0.14000
H64         H  0.60454815  0.49911012  0.81029998     0.14000
H65         H  0.48332355  0.31675358  0.70572562     0.14000
H66         H  0.43720579  0.36579949  0.71329660     0.14000
H67         H  0.56616980  0.38783935  0.75107574     0.27200
H68         H  0.52787914  0.43503642  0.75545444     0.27200
O69         O  0.28147212  0.92015259  0.09783353    -0.56700
C70         C  0.36279356  0.85921263  0.12235830     0.75900
O71         O  0.36906853  0.89405378  0.05837634    -0.57900
C72         C  0.27599570  0.93964368  0.07898171     0.75900
C73         C  0.36352651  0.97573108  0.13259676     0.78300
Cd74       Cd  0.34620638  0.92323822  0.09591912     1.37500
O75         O  0.33696415  0.86092429  0.10746955    -0.56700
O76         O  0.33602624  0.95799921  0.13411867    -0.55500
C77         C  0.38791128  0.91870228  0.05077286     0.78200
O78         O  0.38247501  0.97026665  0.11360670    -0.57900
O79         O  0.38043977  0.88644070  0.12474766    -0.56400
O80         O  0.30261139  0.95138086  0.06807116    -0.56400
O81         O  0.38763826  0.94575838  0.06400514    -0.55500
O82         O  0.35808493  0.15624500  0.37993037    -0.56700
C83         C  0.42244206  0.20694970  0.33321563     0.75900
O84         O  0.45443248  0.10181577  0.37184251    -0.57900
C85         C  0.34885560  0.12592724  0.38574812     0.75900
C86         C  0.38746003  0.10593608  0.30558563     0.78300
Cd87       Cd  0.40702994  0.13898161  0.35264666     1.37500
O88         O  0.39611819  0.20139228  0.34690097    -0.56700
O89         O  0.36718848  0.12496548  0.31795503    -0.55500
C90         C  0.46419407  0.12487217  0.38725328     0.78200
O91         O  0.41742668  0.10105097  0.31506730    -0.57900
O92         O  0.44137848  0.18118826  0.32839880    -0.56400
O93         O  0.36661094  0.10163984  0.37649739    -0.56400
O94         O  0.44855288  0.15339548  0.38586001    -0.55500
O95         O  0.63486238  0.80520481  0.86240677    -0.56700
C96         C  0.55097071  0.75509147  0.83415304     0.75900
O97         O  0.53078353  0.85458795  0.87769281    -0.57900
C98         C  0.64292998  0.83342458  0.87272156     0.75900
C99         C  0.57436422  0.86530174  0.80788424     0.78300
Cd100      Cd  0.57384801  0.82163056  0.85241921     1.37500
O101        O  0.57965894  0.75909201  0.84559098    -0.56700
O102        O  0.59320686  0.83865807  0.80954805    -0.55500
C103        C  0.52863618  0.83239109  0.89523400     0.78200
O104        O  0.55454632  0.87117004  0.82633398    -0.57900
O105        O  0.53248585  0.78182212  0.83125364    -0.56400
O106        O  0.61919393  0.85586470  0.87385526    -0.56400
O107        O  0.54696555  0.80560154  0.89287887    -0.55500
O108        O  0.67845370  0.00910097  0.58044681    -0.56700
C109        C  0.62173123  0.11364894  0.62193445     0.75900
O110        O  0.62323002  0.06912355  0.55386649    -0.57900
C111        C  0.70405534  0.02875121  0.58443304     0.75900
C112        C  0.61719569  0.99810603  0.63757512     0.78300
Cd113      Cd  0.63372972  0.04802515  0.59798474     1.37500
O114        O  0.65153244  0.10434118  0.61472073    -0.56700
O115        O  0.63136152  0.02673370  0.64239062    -0.55500
C116        C  0.59442251  0.05400706  0.55079870     0.78200
O117        O  0.61051259  0.99235258  0.61456369    -0.57900
O118        O  0.59691525  0.09310142  0.61746124    -0.56400
O119        O  0.69739658  0.05727831  0.59480939    -0.56400
O120        O  0.58368281  0.03643418  0.56936704    -0.55500
N121        N  0.08678147  0.06630983  0.50331619    -0.35500
N122        N  0.02012009  0.06672788  0.52775193    -0.56100
N123        N  0.00598997  0.99875595  0.50690854    -0.35500
N124        N  0.07121264  0.00084066  0.47937401    -0.56100
C125        C  0.08416519  0.09922593  0.51136652     0.28100
C126        C  0.10919095  0.06632176  0.48371722     0.28100
C127        C  0.97362857  0.00892407  0.51357045     0.28000
C128        C  0.00238742  0.97242845  0.49043640     0.28000
C129        C  0.03578587  0.09203320  0.54110611     0.36700
C130        C  0.99105869  0.05818218  0.54046151     0.36700
C131        C  0.10514468  0.00441264  0.47347286     0.36700
C132        C  0.06373401  0.96690102  0.47742424     0.36700
C133        C  0.10462143  0.12052434  0.49658891    -0.20800
C134        C  0.11988511  0.09987563  0.47878221    -0.20800
C135        C  0.94927121  0.98905582  0.50082287    -0.20800
C136        C  0.96743737  0.96568340  0.48656067    -0.20800
C137        C  0.01680192  0.09925385  0.56260145    -0.21900
C138        C  0.98811049  0.07819799  0.56194783    -0.21900
C139        C  0.11940515  0.97265315  0.46775191    -0.21900
C140        C  0.09327885  0.94875768  0.47062745    -0.21900
C141        C  0.06555665  0.11000056  0.53276263    -0.17200
C142        C  0.12265096  0.03633890  0.47211221    -0.17200
C143        C  0.02989042  0.95307344  0.48004195    -0.17200
C144        C  0.96596030  0.03440541  0.53186895    -0.17200
H145        H  0.10809645  0.14808533  0.49845140     0.15700
H146        H  0.13748795  0.10861999  0.46424393     0.15700
H147        H  0.92128173  0.99094487  0.50165812     0.15700
H148        H  0.95620272  0.94615327  0.47449027     0.15700
H149        H  0.02257582  0.11793177  0.57711383     0.14000
H150        H  0.96752437  0.07752969  0.57577754     0.14000
H151        H  0.14590915  0.96724988  0.46234133     0.14000
H152        H  0.09588030  0.92128072  0.46785541     0.14000
H153        H  0.07744025  0.04465678  0.51281996     0.27200
H154        H  0.02925158  0.00670339  0.51513276     0.27200
N155        N  0.37411768  0.58234838  0.24218817    -0.35500
N156        N  0.38108416  0.51754433  0.26946691    -0.56100
N157        N  0.44499450  0.50265384  0.24246158    -0.35500
N158        N  0.43432554  0.56534757  0.21228402    -0.56100
C159        C  0.34354852  0.58079426  0.25457568     0.28100
C160        C  0.36978568  0.60464337  0.22262727     0.28100
C161        C  0.43746625  0.47091287  0.25180540     0.28000
C162        C  0.46869074  0.49849257  0.22396243     0.28000
C163        C  0.35684522  0.53258880  0.28412737     0.36700
C164        C  0.39146520  0.48876353  0.28182496     0.36700
C165        C  0.42739841  0.59695890  0.20253409     0.36700
C166        C  0.46667184  0.55707241  0.20459473     0.36700
C167        C  0.31961392  0.60240671  0.24290219    -0.20800
C168        C  0.33608362  0.61726400  0.22263620    -0.20800
C169        C  0.45680320  0.44641113  0.23902550    -0.20800
C170        C  0.47693162  0.46391174  0.22176402    -0.20800
C171        C  0.35218222  0.51350872  0.30607820    -0.21900
C172        C  0.37374153  0.48545266  0.30442729    -0.21900
C173        C  0.45518906  0.60854027  0.18833004    -0.21900
C174        C  0.48015341  0.58338393  0.18975166    -0.21900
C175        C  0.33704515  0.56170496  0.27682801    -0.17200
C176        C  0.39581526  0.61498298  0.20540201    -0.17200
C177        C  0.48333250  0.52517568  0.20920263    -0.17200
C178        C  0.41428909  0.46383471  0.27195232    -0.17200
H179        H  0.29292990  0.60682306  0.24833815     0.15700
H180        H  0.32449308  0.63538604  0.20946071     0.15700
H181        H  0.45647614  0.41874853  0.24165167     0.15700
H182        H  0.49487721  0.45241502  0.20859544     0.15700
H183        H  0.33459748  0.51867385  0.32145470     0.14000
H184        H  0.37601935  0.46485796  0.31822316     0.14000
H185        H  0.45730037  0.63263129  0.17804350     0.14000
H186        H  0.50515279  0.58416421  0.18052288     0.14000
H187        H  0.39745206  0.57181851  0.24848898     0.27200
H188        H  0.43687893  0.52618654  0.24964957     0.27200
O189        O  0.19960713  0.38873866  0.64087638    -0.56700
C190        C  0.10896616  0.34734284  0.62392517     0.75900
O191        O  0.10075620  0.42183431  0.68536085    -0.57900
C192        C  0.21400926  0.41057978  0.65511571     0.75900
C193        C  0.12116740  0.46127633  0.61415375     0.78300
Cd194      Cd  0.13895663  0.40621852  0.64900484     1.37500
O195        O  0.14144722  0.35005207  0.62744786    -0.56700
O196        O  0.12430500  0.46736033  0.63753016    -0.55500
C197        C  0.10835040  0.39525728  0.69828527     0.78200
O198        O  0.12619415  0.43053013  0.60742013    -0.57900
O199        O  0.09035179  0.37175030  0.63202771    -0.56400
O200        O  0.19394045  0.43111786  0.66643323    -0.56400
O201        O  0.13038306  0.37503094  0.68885398    -0.55500
O202        O  0.90399807  0.28963339  0.91962790    -0.56700
C203        C  0.85548735  0.36630345  0.87959484     0.75900
O204        O  0.94608389  0.38395746  0.94020084    -0.57900
C205        C  0.93506540  0.27905062  0.92093249     0.75900
C206        C  0.96587758  0.37136466  0.86582300     0.78300
Cd207      Cd  0.91919606  0.34920497  0.90571889     1.37500
O208        O  0.87364517  0.38853861  0.89093372    -0.56700
O209        O  0.94878724  0.34356386  0.86445245    -0.55500
C210        C  0.91946755  0.38441057  0.95411233     0.78200
O211        O  0.96226775  0.38855979  0.88587795    -0.57900
O212        O  0.86584857  0.33535976  0.88099982    -0.56400
O213        O  0.95832830  0.30046814  0.91484910    -0.56400
O214        O  0.89320532  0.36826092  0.94593204    -0.55500
O215        O  0.02007325  0.68266958  0.41873049    -0.56700
C216        C  0.10531613  0.59796885  0.37789772     0.75900
O217        O  0.01928018  0.59831414  0.43848353    -0.57900
C218        C  0.04222113  0.70255427  0.40869979     0.75900
C219        C  0.99338340  0.61126480  0.36373751     0.78300
Cd220      Cd  0.04536971  0.62829560  0.40158207     1.37500
O221        O  0.10550208  0.62884077  0.38552903    -0.56700
O222        O  0.99376928  0.59625650  0.38500802    -0.55500
C223        C  0.04725089  0.59622467  0.45107059     0.78200
O224        O  0.01556558  0.63490698  0.36063749    -0.57900
O225        O  0.07789372  0.58093526  0.38177399    -0.56400
O226        O  0.06543517  0.68828527  0.39564016    -0.56400
O227        O  0.07368615  0.61032124  0.44141749    -0.55500
O228        O  0.75020672  0.57812893  0.15369269    -0.56700
C229        C  0.82194676  0.63627138  0.11759843     0.75900
O230        O  0.85818588  0.56188255  0.18236874    -0.57900
C231        C  0.74834478  0.55474845  0.17046207     0.75900
C232        C  0.82938491  0.52214050  0.11112946     0.78300
Cd233      Cd  0.81421233  0.57492452  0.14844489     1.37500
O234        O  0.84674505  0.61581578  0.12226932    -0.56700
O235        O  0.79886064  0.53158683  0.11626042    -0.55500
C236        C  0.85499886  0.59081935  0.19316220     0.78200
O237        O  0.85345643  0.53575395  0.12406362    -0.57900
O238        O  0.79288382  0.62861778  0.12720124    -0.56400
O239        O  0.77677965  0.54119554  0.17737541    -0.56400
O240        O  0.83355041  0.61166136  0.18334405    -0.55500
C241        C  0.91224319  0.58864833  0.25351364     0.19800
C242        C  0.91799792  0.56404118  0.27266392    -0.18300
C243        C  0.93552846  0.57294961  0.29500167    -0.10600
C244        C  0.94809077  0.60669238  0.29844580     0.22000
C245        C  0.94262613  0.63111459  0.27917775    -0.19900
C246        C  0.92488872  0.62232358  0.25702620    -0.10800
C247        C  0.96943256  0.61695720  0.32069187    -0.14900
C248        C  0.96907811  0.60098515  0.34335076    -0.28800
C249        C  0.89376884  0.57834645  0.22989416    -0.03100
C250        C  0.87480492  0.60070749  0.21600655    -0.39600
H251        H  0.90887879  0.53783116  0.27032561     0.13200
H252        H  0.94005947  0.55313822  0.30909481     0.12800
H253        H  0.95249523  0.65712225  0.28115295     0.12200
H254        H  0.92197062  0.64177650  0.24244962     0.12500
H255        H  0.98639349  0.63910045  0.31818507     0.15200
H256        H  0.95152573  0.57964386  0.34688832     0.14000
H257        H  0.89426541  0.55134717  0.22454162     0.11700
H258        H  0.87214323  0.62721519  0.22214943     0.13700
C259        C  0.87382045  0.46753544  0.05922497     0.19800
C260        C  0.90452305  0.47141924  0.04524516    -0.18300
C261        C  0.91074285  0.45122454  0.02382160    -0.10600
C262        C  0.88638406  0.42630262  0.01599479     0.22000
C263        C  0.85619372  0.42182579  0.03041854    -0.19900
C264        C  0.85001057  0.44194987  0.05177852    -0.10800
C265        C  0.89006158  0.40561815  0.99241649    -0.14900
C266        C  0.91906181  0.40345226  0.97832670    -0.28800
C267        C  0.86754608  0.49058946  0.08129434    -0.03100
C268        C  0.83572697  0.49699392  0.09072054    -0.39600
H269        H  0.92346137  0.49073873  0.05058792     0.13200
H270        H  0.93419249  0.45596857  0.01325457     0.12800
H271        H  0.83704367  0.40273135  0.02502890     0.12200
H272        H  0.82659204  0.43712505  0.06238179     0.12500
H273        H  0.86716233  0.39163999  0.98610331     0.15200
H274        H  0.94278165  0.41629187  0.98408789     0.14000
H275        H  0.88967309  0.50436341  0.08911353     0.11700
H276        H  0.81294011  0.48531811  0.08222340     0.13700
C277        C  0.01341889  0.37731326  0.80154592     0.19800
C278        C  0.02264996  0.35274533  0.78340905    -0.18300
C279        C  0.04120787  0.36227077  0.76186434    -0.10600
C280        C  0.05088510  0.39681044  0.75779576     0.22000
C281        C  0.04129497  0.42157554  0.77568503    -0.19900
C282        C  0.02296401  0.41197513  0.79744475    -0.10800
C283        C  0.06934530  0.40762670  0.73442385    -0.14900
C284        C  0.09204764  0.38683560  0.72272557    -0.28800
C285        C  0.99222000  0.36577644  0.82352809    -0.03100
C286        C  0.98849512  0.38365758  0.84509646    -0.39600
H287        H  0.01522223  0.32599685  0.78581733     0.13200
H288        H  0.04710235  0.34264237  0.74808861     0.12800
H289        H  0.04797981  0.44842736  0.77279298     0.12200
H290        H  0.01558718  0.43193007  0.81053325     0.12500
H291        H  0.06436429  0.43325369  0.72683931     0.15200
H292        H  0.09867972  0.36207685  0.73112227     0.14000
H293        H  0.97929020  0.34096636  0.82192317     0.11700
H294        H  0.00199313  0.40789861  0.84778019     0.13700
C295        C  0.08302004  0.55248810  0.51122485     0.19800
C296        C  0.10498112  0.56216571  0.53122909    -0.18300
C297        C  0.11166973  0.53939387  0.55129695    -0.10600
C298        C  0.09698590  0.50621020  0.55140631     0.22000
C299        C  0.07569164  0.49629444  0.53111708    -0.19900
C300        C  0.06848794  0.51924256  0.51133678    -0.10800
C301        C  0.10508860  0.48045569  0.57138169    -0.14900
C302        C  0.11247215  0.48849908  0.59554250    -0.28800
C303        C  0.07818127  0.57621418  0.48939157    -0.03100
C304        C  0.04914515  0.57679504  0.47510272    -0.39600
H305        H  0.11711930  0.58735513  0.53124514     0.13200
H306        H  0.12911863  0.54741342  0.56624661     0.12800
H307        H  0.06467215  0.47061036  0.53053245     0.12200
H308        H  0.05250699  0.51048781  0.49575874     0.12500
H309        H  0.10387308  0.45346301  0.56602101     0.15200
H310        H  0.11179853  0.51509612  0.60178612     0.14000
H311        H  0.09955738  0.59332776  0.48467442     0.11700
H312        H  0.02679986  0.56138033  0.48045265     0.13700
C313        C  0.19294492  0.58793977  0.34333975     0.19800
C314        C  0.22023480  0.61081796  0.33827134    -0.18300
C315        C  0.24903438  0.60039811  0.32440009    -0.10600
C316        C  0.25128874  0.56657130  0.31496792     0.22000
C317        C  0.22403232  0.54356889  0.32009711    -0.19900
C318        C  0.19517705  0.55400859  0.33409125    -0.10800
C319        C  0.28130342  0.55415389  0.29982422    -0.14900
C320        C  0.30828737  0.57412672  0.29299597    -0.28800
C321        C  0.16284265  0.60119445  0.35794214    -0.03100
C322        C  0.13504105  0.58238793  0.36472497    -0.39600
H323        H  0.21932714  0.63707973  0.34510531     0.13200
H324        H  0.26915645  0.61927170  0.32139025     0.12800
H325        H  0.22498303  0.51735848  0.31316849     0.12200
H326        H  0.17489964  0.53532241  0.33732441     0.12500
H327        H  0.28101219  0.52747813  0.29363085     0.15200
H328        H  0.30874044  0.60133319  0.29728785     0.14000
H329        H  0.16338490  0.62829130  0.36308086     0.11700
H330        H  0.13302712  0.55534078  0.36003306     0.13700
C331        C  0.64967945  0.54107337  0.18096144     0.19800
C332        C  0.62055669  0.54382067  0.16498542    -0.18300
C333        C  0.58721876  0.53622623  0.17380154    -0.10600
C334        C  0.58214300  0.52568240  0.19900784     0.22000
C335        C  0.61134716  0.52227745  0.21485841    -0.19900
C336        C  0.64473507  0.52978846  0.20600434    -0.10800
C337        C  0.54693538  0.52164963  0.21023567    -0.14900
C338        C  0.51728196  0.51935413  0.19677221    -0.28800
C339        C  0.68414173  0.55227722  0.17111418    -0.03100
C340        C  0.71493962  0.54336075  0.18145227    -0.39600
H341        H  0.62351309  0.55264319  0.14566705     0.13200
H342        H  0.56560555  0.54013347  0.16100264     0.12800
H343        H  0.60822225  0.51465972  0.23443128     0.12200
H344        H  0.66624453  0.52797737  0.21915533     0.12500
H345        H  0.54503838  0.52292911  0.23069935     0.15200
H346        H  0.51754914  0.51824906  0.17633228     0.14000
H347        H  0.68413896  0.56794309  0.15402616     0.11700
H348        H  0.71606853  0.52612048  0.19762657     0.13700
C349        C  0.09813669  0.25959512  0.59017300     0.19800
C350        C  0.12106332  0.23805080  0.57709409    -0.18300
C351        C  0.10917787  0.20812433  0.56523590    -0.10600
C352        C  0.07388456  0.19873351  0.56638254     0.22000
C353        C  0.05096717  0.22013858  0.57960713    -0.19900
C354        C  0.06287316  0.25010846  0.59149247    -0.10800
C355        C  0.05975759  0.16768273  0.55336545    -0.14900
C356        C  0.07936160  0.14052823  0.54660542    -0.28800
C357        C  0.11248598  0.29096878  0.60260488    -0.03100
C358        C  0.09315852  0.31730966  0.61121099    -0.39600
H359        H  0.14834483  0.24461616  0.57577421     0.13200
H360        H  0.12771269  0.19306293  0.55474322     0.12800
H361        H  0.02369336  0.21353305  0.58086870     0.12200
H362        H  0.04434971  0.26531969  0.60187489     0.12500
H363        H  0.03206458  0.16708309  0.54934508     0.15200
H364        H  0.10712519  0.14078144  0.55008860     0.14000
H365        H  0.14056862  0.29262681  0.60446230     0.11700
H366        H  0.06517035  0.31730900  0.60895264     0.13700
C367        C  0.02645692  0.86486925  0.44500154     0.19800
C368        C  0.03359420  0.85335800  0.42042665    -0.18300
C369        C  0.03105932  0.81830082  0.41433224    -0.10600
C370        C  0.02118964  0.79397732  0.43275595     0.22000
C371        C  0.01285167  0.80556792  0.45697998    -0.19900
C372        C  0.01584442  0.84041058  0.46318409    -0.10800
C373        C  0.01970118  0.75633328  0.42763385    -0.14900
C374        C  0.04170549  0.74043021  0.41186755    -0.28800
C375        C  0.03237785  0.90194199  0.45127132    -0.03100
C376        C  0.02214159  0.91663799  0.47302298    -0.39600
H377        H  0.04167924  0.87148437  0.40597571     0.13200
H378        H  0.03682480  0.81031669  0.39525530     0.12800
H379        H  0.00513263  0.78735507  0.47148238     0.12200
H380        H  0.01076117  0.84749607  0.48249513     0.12500
H381        H  0.00188744  0.74082904  0.43877892     0.15200
H382        H  0.06111307  0.75533692  0.40178899     0.14000
H383        H  0.04599700  0.91775327  0.43751769     0.11700
H384        H  0.00574015  0.90247925  0.48598351     0.13700
C385        C  0.80346620  0.03133481  0.57267872     0.19800
C386        C  0.82963199  0.05541978  0.57824341    -0.18300
C387        C  0.86399167  0.04969294  0.57097741    -0.10600
C388        C  0.87306637  0.01965747  0.55782327     0.22000
C389        C  0.84728670  0.99505907  0.55284679    -0.19900
C390        C  0.81280448  0.00085620  0.55997058    -0.10800
C391        C  0.90910684  0.01345866  0.54902140    -0.14900
C392        C  0.92980583  0.03931283  0.54120546    -0.28800
C393        C  0.76708826  0.03962785  0.58022455    -0.03100
C394        C  0.73958486  0.01855836  0.57709876    -0.39600
H395        H  0.82345624  0.07894342  0.58819775     0.13200
H396        H  0.88342043  0.06872169  0.57585976     0.12800
H397        H  0.85370962  0.97161756  0.54287044     0.12200
H398        H  0.79386153  0.98144529  0.55514628     0.12500
H399        H  0.91820160  0.98700543  0.54788918     0.15200
H400        H  0.92049371  0.06568762  0.54224988     0.14000
H401        H  0.76268740  0.06468178  0.58873695     0.11700
H402        H  0.74252423  0.99327603  0.56884638     0.13700
C403        C  0.60763672  0.95335310  0.70293390     0.19800
C404        C  0.60502105  0.96545419  0.72781894    -0.18300
C405        C  0.59980295  0.94259043  0.74798736    -0.10600
C406        C  0.59739141  0.90691596  0.74375140     0.22000
C407        C  0.60052158  0.89467325  0.71898393    -0.19900
C408        C  0.60535483  0.91757556  0.69874606    -0.10800
C409        C  0.59370420  0.88192056  0.76496827    -0.14900
C410        C  0.57587144  0.88916204  0.78607715    -0.28800
C411        C  0.61455875  0.97869049  0.68223267    -0.03100
C412        C  0.60901303  0.97243736  0.65749722    -0.39600
H413        H  0.60722721  0.99275710  0.73170837     0.13200
H414        H  0.59861618  0.95282892  0.76693906     0.12800
H415        H  0.59930494  0.86725773  0.71529208     0.12200
H416        H  0.60825332  0.90695268  0.68004949     0.12500
H417        H  0.60548154  0.85662692  0.76293349     0.15200
H418        H  0.56210799  0.91348510  0.78760421     0.14000
H419        H  0.62420995  0.00392171  0.68769847     0.11700
H420        H  0.59790386  0.94814371  0.65146312     0.13700
C421        C  0.43014963  0.37287188  0.30061556     0.19800
C422        C  0.45624919  0.34787098  0.29839460    -0.18300
C423        C  0.45107094  0.31427117  0.30744861    -0.10600
C424        C  0.41954690  0.30501342  0.31909497     0.22000
C425        C  0.39396683  0.33043567  0.32204378    -0.19900
C426        C  0.39914248  0.36393523  0.31298582    -0.10800
C427        C  0.41227360  0.26964165  0.32890240    -0.14900
C428        C  0.43108980  0.24150156  0.32321617    -0.28800
C429        C  0.43608494  0.40809906  0.29022094    -0.03100
C430        C  0.40986321  0.42800746  0.28171693    -0.39600
H431        H  0.48059156  0.35425717  0.28934332     0.13200
H432        H  0.47202534  0.29600086  0.30543303     0.12800
H433        H  0.36972211  0.32433250  0.33133858     0.12200
H434        H  0.37893964  0.38281637  0.31603595     0.12500
H435        H  0.38971272  0.26648744  0.34094829     0.15200
H436        H  0.45323860  0.24327514  0.31076220     0.14000
H437        H  0.46260358  0.41746148  0.28883339     0.11700
H438        H  0.38337104  0.41859853  0.28282642     0.13700
C439        C  0.56435063  0.07726117  0.48262829     0.19800
C440        C  0.56936023  0.10597311  0.46676586    -0.18300
C441        C  0.55029233  0.10971064  0.44427778    -0.10600
C442        C  0.52592703  0.08453016  0.43698042     0.22000
C443        C  0.52209723  0.05507587  0.45221984    -0.19900
C444        C  0.54088050  0.05151159  0.47484481    -0.10800
C445        C  0.50330583  0.08874397  0.41417636    -0.14900
C446        C  0.49167343  0.11983391  0.40656545    -0.28800
C447        C  0.58462289  0.07465762  0.50672335    -0.03100
C448        C  0.57408232  0.05624241  0.52697295    -0.39600
H449        H  0.58772019  0.12589005  0.47199493     0.13200
H450        H  0.55472694  0.13229257  0.43264325     0.12800
H451        H  0.50385429  0.03509803  0.44690609     0.12200
H452        H  0.53713423  0.02839735  0.48600809     0.12500
H453        H  0.49287052  0.06574305  0.40529690     0.15200
H454        H  0.49985999  0.14270509  0.41671125     0.14000
H455        H  0.60850532  0.08947277  0.50814039     0.11700
H456        H  0.54951207  0.04259260  0.52640901     0.13700
C457        C  0.21456469  0.06375429  0.44997314     0.19800
C458        C  0.23359109  0.09385990  0.45500464    -0.18300
C459        C  0.26307235  0.10220309  0.44090407    -0.10600
C460        C  0.27439665  0.08030523  0.42152462     0.22000
C461        C  0.25573500  0.04985085  0.41683400    -0.19900
C462        C  0.22598921  0.04171170  0.43075041    -0.10800
C463        C  0.30594563  0.08770514  0.40628045    -0.14900
C464        C  0.31866845  0.11961751  0.40229137    -0.28800
C465        C  0.18338599  0.05630125  0.46549556    -0.03100
C466        C  0.15550773  0.03848368  0.45722873    -0.39600
H467        H  0.22546111  0.11114876  0.46984846     0.13200
H468        H  0.27720730  0.12541272  0.44560103     0.12800
H469        H  0.26412441  0.03233480  0.40221943     0.12200
H470        H  0.21248094  0.01790218  0.42672212     0.12500
H471        H  0.31814353  0.06607493  0.39684510     0.15200
H472        H  0.30589995  0.14191976  0.41030970     0.14000
H473        H  0.18220229  0.06835762  0.48394911     0.11700
H474        H  0.15612747  0.02573200  0.43904801     0.13700
C475        C  0.46681612  0.87083344  0.94492498     0.19800
C476        C  0.46052239  0.90454413  0.95326534    -0.18300
C477        C  0.44246594  0.91044458  0.97573129    -0.10600
C478        C  0.42999755  0.88256971  0.99022896     0.22000
C479        C  0.43531337  0.84894193  0.98138087    -0.19900
C480        C  0.45342419  0.84306795  0.95902419    -0.10800
C481        C  0.41007638  0.88705386  0.01401023    -0.14900
C482        C  0.40898687  0.91628750  0.02759667    -0.28800
C483        C  0.48742426  0.86552297  0.92155883    -0.03100
C484        C  0.50636331  0.83690894  0.91756716    -0.39600
H485        H  0.47004893  0.92640368  0.94253521     0.13200
H486        H  0.43803607  0.93681047  0.98135757     0.12800
H487        H  0.42543523  0.82700695  0.99186091     0.12200
H488        H  0.45651026  0.81675562  0.95276911     0.12500
H489        H  0.39589650  0.86471605  0.02092361     0.15200
H490        H  0.42379329  0.93879364  0.02197900     0.14000
H491        H  0.48875534  0.88660685  0.90799327     0.11700
H492        H  0.50686238  0.81637695  0.93155744     0.13700
C493        C  0.38509293  0.05755107  0.24153578     0.19800
C494        C  0.41038429  0.04605294  0.22451147    -0.18300
C495        C  0.40084704  0.03054390  0.20166303    -0.10600
C496        C  0.36558514  0.02605229  0.19531472     0.22000
C497        C  0.34030198  0.03778329  0.21219069    -0.19900
C498        C  0.34980569  0.05330769  0.23499382    -0.10800
C499        C  0.35412234  0.00614583  0.17278537    -0.14900
C500        C  0.37400588  0.00042308  0.15239805    -0.28800
C501        C  0.39662132  0.07245378  0.26619115    -0.03100
C502        C  0.37578754  0.09085610  0.28137946    -0.39600
H503        H  0.43771974  0.04861195  0.22907974     0.13200
H504        H  0.42120516  0.02097778  0.18959382     0.12800
H505        H  0.31297233  0.03420456  0.20797433     0.12200
H506        H  0.32925556  0.06078639  0.24762985     0.12500
H507        H  0.32835066  0.99474076  0.17342145     0.15200
H508        H  0.39918612  0.01269567  0.15060591     0.14000
H509        H  0.42357458  0.06877351  0.27179472     0.11700
H510        H  0.34924770  0.09637531  0.27579350     0.13700
C511        C  0.37646563  0.70723026  0.18071768     0.19800
C512        C  0.38633609  0.73996277  0.18927008    -0.18300
C513        C  0.38017812  0.76937197  0.17446459    -0.10600
C514        C  0.36353496  0.76675330  0.15076617     0.22000
C515        C  0.35315468  0.73398521  0.14242471    -0.19900
C516        C  0.35971985  0.70449905  0.15712616    -0.10800
C517        C  0.35496794  0.79772610  0.13501502    -0.14900
C518        C  0.37229843  0.82779035  0.13680533    -0.28800
C519        C  0.38244132  0.67672437  0.19732664    -0.03100
C520        C  0.38910004  0.64503379  0.18833739    -0.39600
H521        H  0.39882161  0.74280024  0.20753133     0.13200
H522        H  0.38758793  0.79412310  0.18207594     0.12800
H523        H  0.33980714  0.73120000  0.12448571     0.12200
H524        H  0.35088628  0.67973885  0.15029318     0.12500
H525        H  0.33394400  0.79557394  0.12132805     0.15200
H526        H  0.39452493  0.82987011  0.14937835     0.14000
H527        H  0.38283533  0.68065546  0.21764276     0.11700
H528        H  0.39209627  0.64128488  0.16815738     0.13700
C529        C  0.77745682  0.36717254  0.83383548     0.19800
C530        C  0.74974385  0.34496990  0.82842534    -0.18300
C531        C  0.72198838  0.35605834  0.81325118    -0.10600
C532        C  0.72170198  0.38962378  0.80274884     0.22000
C533        C  0.75017173  0.41125478  0.80748591    -0.19900
C534        C  0.77774064  0.40021950  0.82276470    -0.10800
C535        C  0.69204427  0.40382918  0.78768685    -0.14900
C536        C  0.66365762  0.38563213  0.78131223    -0.28800
C537        C  0.80616208  0.35510777  0.85053582    -0.03100
C538        C  0.82463448  0.37693499  0.86495768    -0.39600
H539        H  0.74917878  0.31922095  0.83644751     0.13200
H540        H  0.70087008  0.33821400  0.81037336     0.12800
H541        H  0.75097547  0.43702354  0.79951648     0.12200
H542        H  0.79936613  0.41758187  0.82567631     0.12500
H543        H  0.69335495  0.43070470  0.78184757     0.15200
H544        H  0.66241547  0.35821955  0.78507556     0.14000
H545        H  0.81200704  0.32770117  0.85112587     0.11700
H546        H  0.81783235  0.40407974  0.86542637     0.13700
C547        C  0.58221362  0.18852503  0.65989011     0.19800
C548        C  0.55077416  0.20688692  0.65940015    -0.18300
C549        C  0.54658518  0.23648075  0.67413942    -0.10600
C550        C  0.57367907  0.24786847  0.68997067     0.22000
C551        C  0.60451892  0.22873388  0.69120610    -0.19900
C552        C  0.60889248  0.19952905  0.67624188    -0.10800
C553        C  0.57082629  0.27943969  0.70550132    -0.14900
C554        C  0.55356197  0.30775459  0.69770489    -0.28800
C555        C  0.58607130  0.15714634  0.64412561    -0.03100
C556        C  0.61705083  0.14642654  0.63550424    -0.39600
H557        H  0.52956450  0.19851620  0.64738346     0.13200
H558        H  0.52207373  0.25011936  0.67334717     0.12800
H559        H  0.62554380  0.23673128  0.70353747     0.12200
H560        H  0.63297631  0.18530473  0.67789592     0.12500
H561        H  0.58553829  0.28032872  0.72306666     0.15200
H562        H  0.53874803  0.30715150  0.68020064     0.14000
H563        H  0.56280170  0.14265536  0.63937309     0.11700
H564        H  0.64018040  0.16171507  0.63896892     0.13700
C565        C  0.55269580  0.65857036  0.81538256     0.19800
C566        C  0.57930005  0.63384145  0.81619244    -0.18300
C567        C  0.57424372  0.60082519  0.80648063    -0.10600
C568        C  0.54227739  0.59150095  0.79551006     0.22000
C569        C  0.51537929  0.61602306  0.79487850    -0.19900
C570        C  0.52047835  0.64928128  0.80459787    -0.10800
C571        C  0.53592445  0.55602603  0.78572059    -0.14900
C572        C  0.56159972  0.53555082  0.77714391    -0.28800
C573        C  0.56027368  0.69319142  0.82629289    -0.03100
C574        C  0.53973985  0.72120964  0.82423993    -0.39600
H575        H  0.60426595  0.64001469  0.82455838     0.13200
H576        H  0.59527835  0.58249169  0.80826618     0.12800
H577        H  0.49035008  0.60942619  0.78680094     0.12200
H578        H  0.49901953  0.66720967  0.80382275     0.12500
H579        H  0.50937358  0.54658671  0.78559133     0.15200
H580        H  0.58811400  0.54498934  0.77724546     0.14000
H581        H  0.58509623  0.69604776  0.83594998     0.11700
H582        H  0.51499937  0.72001018  0.81443512     0.13700
C583        C  0.30689977  0.43250490  0.67906721     0.19800
C584        C  0.31993086  0.45000331  0.70026634    -0.18300
C585        C  0.35545879  0.44955599  0.70611384    -0.10600
C586        C  0.37898114  0.43150646  0.69076500     0.22000
C587        C  0.36607732  0.41490874  0.66916357    -0.19900
C588        C  0.33060541  0.41541123  0.66330191    -0.10800
C589        C  0.41686705  0.42858973  0.69649736    -0.14900
C590        C  0.43191264  0.43790382  0.71846132    -0.28800
C591        C  0.26861357  0.43285574  0.67420126    -0.03100
C592        C  0.25220966  0.41114778  0.65830158    -0.39600
H593        H  0.30245246  0.46379891  0.71258552     0.13200
H594        H  0.36401149  0.46342169  0.72264274     0.12800
H595        H  0.38352498  0.40111932  0.65681284     0.12200
H596        H  0.32220229  0.40249451  0.64631621     0.12500
H597        H  0.43313929  0.41666935  0.68228179     0.15200
H598        H  0.41721273  0.45098631  0.73290227     0.14000
H599        H  0.25304464  0.45080388  0.68503656     0.11700
H600        H  0.26665865  0.39201571  0.64788134     0.13700
C601        C  0.86530426  0.70904013  0.07915773     0.19800
C602        C  0.89770283  0.72515878  0.08192678    -0.18300
C603        C  0.90528568  0.75549894  0.06873200    -0.10600
C604        C  0.88067800  0.77019075  0.05215906     0.22000
C605        C  0.84875549  0.75331596  0.04858186    -0.19900
C606        C  0.84096349  0.72314675  0.06209323    -0.10800
C607        C  0.88786009  0.80265653  0.03807788    -0.14900
C608        C  0.90803436  0.82799544  0.04749253    -0.28800
C609        C  0.85845299  0.67707931  0.09385194    -0.03100
C610        C  0.82672202  0.66747608  0.10183185    -0.39600
H611        H  0.91712544  0.71442145  0.09459954     0.13200
H612        H  0.93063379  0.76704521  0.07127447     0.12800
H613        H  0.82961329  0.76379932  0.03557584     0.12200
H614        H  0.81616725  0.71072360  0.05891810     0.12500
H615        H  0.87515418  0.80626347  0.01988636     0.15200
H616        H  0.92063997  0.82434398  0.06570047     0.14000
H617        H  0.88089032  0.66190215  0.09965255     0.11700
H618        H  0.80412968  0.68323357  0.09752638     0.13700
C619        C  0.72110447  0.87732312  0.90575884     0.19800
C620        C  0.72846646  0.91154261  0.91241495    -0.18300
C621        C  0.75874864  0.91988408  0.92573081    -0.10600
C622        C  0.78252387  0.89398698  0.93289667     0.22000
C623        C  0.77567668  0.85987652  0.92556045    -0.19900
C624        C  0.74535625  0.85153391  0.91222598    -0.10800
C625        C  0.81414010  0.90083662  0.94850383    -0.14900
C626        C  0.82265369  0.93160136  0.95858902    -0.28800
C627        C  0.68696104  0.86979992  0.89358255    -0.03100
C628        C  0.67813964  0.83948645  0.88303321    -0.39600
H629        H  0.71036461  0.93197869  0.90762965     0.13200
H630        H  0.76282698  0.94659254  0.93049475     0.12800
H631        H  0.79350132  0.83935513  0.93069973     0.12200
H632        H  0.74076459  0.82475312  0.90784440     0.12500
H633        H  0.83121748  0.87907540  0.95235255     0.15200
H634        H  0.80711357  0.95429809  0.95482081     0.14000
H635        H  0.66782698  0.89041599  0.89356118     0.11700
H636        H  0.69666064  0.81854568  0.88183137     0.13700
C637        C  0.17577282  0.94464811  0.07166894     0.19800
C638        C  0.14764019  0.94063277  0.08822712    -0.18300
C639        C  0.11346007  0.94643143  0.07994705    -0.10600
C640        C  0.10662031  0.95603775  0.05471037     0.22000
C641        C  0.13476189  0.96060901  0.03831184    -0.26300
C642        C  0.16885842  0.95470320  0.04653883    -0.10800
C643        C  0.07074698  0.96065165  0.04443498    -0.14900
C644        C  0.04266744  0.94457333  0.05395304    -0.28800
C645        C  0.21162282  0.93687850  0.08101414    -0.03100
C646        C  0.24072684  0.94840004  0.06972724    -0.39600
H647        H  0.15212777  0.93296163  0.10767995     0.13200
H648        H  0.09260258  0.94345362  0.09337715     0.12800
H649        H  0.13028191  0.96786975  0.01877525     0.12200
H650        H  0.18946770  0.95720810  0.03288515     0.12500
H651        H  0.06783214  0.97502270  0.02686771     0.15200
H652        H  0.04570225  0.92778261  0.07026644     0.14000
H653        H  0.21411285  0.92149343  0.09814963     0.11700
H654        H  0.23907664  0.96511570  0.05328977     0.13700
C655        C  0.92972281  0.18538496  0.94687096     0.19800
C656        C  0.90406226  0.16613412  0.95938659    -0.18300
C657        C  0.91073108  0.13244415  0.96773962    -0.10600
C658        C  0.94334545  0.11710266  0.96369704     0.22000
C659        C  0.96891819  0.13614519  0.95108309    -0.19900
C660        C  0.96235299  0.16988305  0.94284168    -0.10800
C661        C  0.95038541  0.08045546  0.97043173    -0.14900
C662        C  0.93458248  0.06408128  0.98961145    -0.28800
C663        C  0.92092318  0.22089987  0.93776501    -0.03100
C664        C  0.94446909  0.24382647  0.92925330    -0.39600
H665        H  0.87857157  0.17708575  0.96251449     0.13200
H666        H  0.88993657  0.11815214  0.97661345     0.12800
H667        H  0.99403829  0.12472285  0.94736791     0.12200
H668        H  0.98278935  0.18307267  0.93281370     0.12500
H669        H  0.96849547  0.06612872  0.95881987     0.15200
H670        H  0.91732566  0.07796440  0.00209332     0.14000
H671        H  0.89386068  0.22878439  0.93861157     0.11700
H672        H  0.97184165  0.23749927  0.92897997     0.13700
loop_ 
_geom_bond_atom_site_label_1 
_geom_bond_atom_site_label_2 
_geom_bond_distance 
_geom_bond_site_symmetry_2 
_ccdc_geom_bond_type 
N1            C6   1.351   1_554  A
N1            C5   1.353       .  A
N1           H33   1.042   1_554  S
N2            C9   1.354       .  A
N2           C10   1.354       .  A
N3            C8   1.355   1_565  A
N3            C7   1.355       .  A
N3           H34   1.039       .  S
N4           C11   1.353       .  A
N4           C12   1.351   1_565  A
C5           C13   1.388       .  A
C5           C21   1.415       .  A
C6           C22   1.410       .  A
C6           C14   1.385   1_556  A
C7           C15   1.387   1_665  A
C7           C24   1.419   1_655  A
C8           C23   1.418   1_554  A
C8           C16   1.387       .  A
C9           C21   1.413       .  A
C9           C17   1.385       .  A
C10          C24   1.417   1_655  A
C10          C18   1.388   1_655  A
C11          C19   1.386       .  A
C11          C22   1.412       .  A
C12          C20   1.387       .  A
C12          C23   1.412       .  A
C13          C14   1.375       .  A
C13          H25   1.082       .  S
C14          H26   1.082       .  S
C15          C16   1.380   1_455  A
C15          H27   1.082       .  S
C16          H28   1.082       .  S
C17          C18   1.373   1_655  A
C17          H29   1.082       .  S
C18          H30   1.082       .  S
C19          C20   1.373   1_565  A
C19          H31   1.082       .  S
C20          H32   1.082       .  S
C21         C608   1.495       .  S
C22         C626   1.492       .  S
C23         C662   1.486       .  S
C24         C644   1.497       .  S
N35          C40   1.353       .  A
N35          C39   1.349       .  A
N35          H67   1.042       .  S
N36          C43   1.353       .  A
N36          C44   1.351       .  A
N37          C42   1.353       .  A
N37          C41   1.356       .  A
N37          H68   1.042       .  S
N38          C45   1.352       .  A
N38          C46   1.351       .  A
C39          C47   1.385       .  A
C39          C55   1.407       .  A
C40          C56   1.416       .  A
C40          C48   1.389       .  A
C41          C49   1.388       .  A
C41          C58   1.419       .  A
C42          C57   1.413       .  A
C42          C50   1.385       .  A
C43          C55   1.416       .  A
C43          C51   1.387       .  A
C44          C58   1.413       .  A
C44          C52   1.386       .  A
C45          C53   1.384       .  A
C45          C56   1.410       .  A
C46          C54   1.388       .  A
C46          C57   1.415       .  A
C47          C48   1.376       .  A
C47          H59   1.083       .  S
C48          H60   1.082       .  S
C49          C50   1.377       .  A
C49          H61   1.081       .  S
C50          H62   1.082       .  S
C51          C52   1.375       .  A
C51          H63   1.081       .  S
C52          H64   1.083       .  S
C53          C54   1.373       .  A
C53          H65   1.082       .  S
C54          H66   1.081       .  S
C55         C536   1.488       .  S
C56         C554   1.492       .  S
C57         C590   1.491       .  S
C58         C572   1.497       .  S
O69          C72   1.266       .  A
O69         Cd74   2.498       .  S
C70         C518   1.480       .  S
C70          O79   1.263       .  A
C70          O75   1.267       .  A
O71          C77   1.266       .  A
O71         Cd74   2.460       .  S
C72         C646   1.480       .  S
C72          O80   1.263       .  A
C73         C500   1.478   1_565  S
C73          O78   1.265       .  A
C73          O76   1.266       .  A
Cd74         O81   2.486       .  S
Cd74         O80   2.477       .  S
Cd74         O79   2.461       .  S
Cd74         O75   2.516       .  S
Cd74         O78   2.482       .  S
Cd74         O76   2.470       .  S
C77         C482   1.479       .  S
C77          O81   1.265       .  A
O82          C85   1.266       .  A
O82         Cd87   2.476       .  S
C83         C428   1.477       .  S
C83          O92   1.265       .  A
C83          O88   1.267       .  A
O84          C90   1.269       .  A
O84         Cd87   2.531       .  S
C85         C464   1.479       .  S
C85          O93   1.266       .  A
C86         C502   1.479       .  S
C86          O91   1.269       .  A
C86          O89   1.263       .  A
Cd87         O94   2.437       .  S
Cd87         O93   2.474       .  S
Cd87         O92   2.465       .  S
Cd87         O88   2.474       .  S
Cd87         O91   2.515       .  S
Cd87         O89   2.450       .  S
C90         C446   1.479       .  S
C90          O94   1.261       .  A
O95          C98   1.264       .  A
O95        Cd100   2.487       .  S
C96         C574   1.482       .  S
C96         O105   1.266       .  A
C96         O101   1.267       .  A
O97         C103   1.266       .  A
O97        Cd100   2.494       .  S
C98         C628   1.478       .  S
C98         O106   1.264       .  A
C99         C410   1.477       .  S
C99         O104   1.265       .  A
C99         O102   1.265       .  A
Cd100       O107   2.461       .  S
Cd100       O106   2.469       .  S
Cd100       O105   2.485       .  S
Cd100       O101   2.465       .  S
Cd100       O104   2.472       .  S
Cd100       O102   2.479       .  S
C103        C484   1.476       .  S
C103        O107   1.263       .  A
O108        C111   1.264       .  A
O108       Cd113   2.478       .  S
C109        C556   1.475       .  S
C109        O118   1.267       .  A
C109        O114   1.265       .  A
O110        C116   1.265       .  A
O110       Cd113   2.501       .  S
C111        C394   1.479       .  S
C111        O119   1.265       .  A
C112        C412   1.482       .  S
C112        O117   1.265       .  A
C112        O115   1.264   1_565  A
Cd113       O120   2.487       .  S
Cd113       O119   2.484       .  S
Cd113       O118   2.483       .  S
Cd113       O114   2.458       .  S
Cd113       O117   2.495   1_545  S
Cd113       O115   2.490       .  S
C116        C448   1.483       .  S
C116        O120   1.265       .  A
N121        C126   1.353       .  A
N121        C125   1.352       .  A
N121        H153   1.042       .  S
N122        C129   1.353       .  A
N122        C130   1.350   1_455  A
N123        C128   1.353       .  A
N123        C127   1.356   1_465  A
N123        H154   1.041   1_565  S
N124        C131   1.352       .  A
N124        C132   1.352   1_545  A
C125        C133   1.384       .  A
C125        C141   1.409       .  A
C126        C142   1.418       .  A
C126        C134   1.389       .  A
C127        C135   1.388   1_545  A
C127        C144   1.420       .  A
C128        C143   1.414       .  A
C128        C136   1.385   1_455  A
C129        C141   1.413       .  A
C129        C137   1.386       .  A
C130        C144   1.411       .  A
C130        C138   1.386       .  A
C131        C139   1.385   1_545  A
C131        C142   1.412       .  A
C132        C140   1.388       .  A
C132        C143   1.417       .  A
C133        C134   1.375       .  A
C133        H145   1.082       .  S
C134        H146   1.082       .  S
C135        C136   1.377       .  A
C135        H147   1.081       .  S
C136        H148   1.082       .  S
C137        C138   1.374   1_455  A
C137        H149   1.081       .  S
C138        H150   1.083       .  S
C139        C140   1.377       .  A
C139        H151   1.082       .  S
C140        H152   1.081       .  S
C141        C356   1.492       .  S
C142        C466   1.497       .  S
C143        C376   1.493       .  S
C144        C392   1.493       .  S
N155        C160   1.355       .  A
N155        C159   1.352       .  A
N155        H187   1.039       .  S
N156        C163   1.352       .  A
N156        C164   1.350       .  A
N157        C162   1.353       .  A
N157        C161   1.356       .  A
N157        H188   1.040       .  S
N158        C165   1.354       .  A
N158        C166   1.352       .  A
C159        C167   1.386       .  A
C159        C175   1.412       .  A
C160        C176   1.416       .  A
C160        C168   1.387       .  A
C161        C169   1.389       .  A
C161        C178   1.420       .  A
C162        C177   1.413       .  A
C162        C170   1.384       .  A
C163        C175   1.413       .  A
C163        C171   1.387       .  A
C164        C178   1.411       .  A
C164        C172   1.386       .  A
C165        C173   1.385       .  A
C165        C176   1.412       .  A
C166        C174   1.387       .  A
C166        C177   1.413       .  A
C167        C168   1.374       .  A
C167        H179   1.083       .  S
C168        H180   1.082       .  S
C169        C170   1.378       .  A
C169        H181   1.081       .  S
C170        H182   1.082       .  S
C171        C172   1.372       .  A
C171        H183   1.082       .  S
C172        H184   1.083       .  S
C173        C174   1.371       .  A
C173        H185   1.082       .  S
C174        H186   1.082       .  S
C175        C320   1.486       .  S
C176        C520   1.493       .  S
C177        C338   1.485       .  S
C178        C430   1.490       .  S
O189        C192   1.263       .  A
O189       Cd194   2.473       .  S
C190        C358   1.478       .  S
C190        O199   1.266       .  A
C190        O195   1.268       .  A
O191        C197   1.267       .  A
O191       Cd194   2.506       .  S
C192        C592   1.480       .  S
C192        O200   1.266       .  A
C193        C302   1.477       .  S
C193        O198   1.262       .  A
C193        O196   1.266       .  A
Cd194       O201   2.450       .  S
Cd194       O200   2.501       .  S
Cd194       O199   2.468       .  S
Cd194       O195   2.467       .  S
Cd194       O198   2.438       .  S
Cd194       O196   2.508       .  S
C197        C284   1.477       .  S
C197        O201   1.262       .  A
O202        C205   1.266       .  A
O202       Cd207   2.492       .  S
C203        C538   1.472       .  S
C203        O212   1.267       .  A
C203        O208   1.263       .  A
O204        C210   1.266       .  A
O204       Cd207   2.496       .  S
C205        C664   1.478       .  S
C205        O213   1.264       .  A
C206        C286   1.482       .  S
C206        O211   1.265       .  A
C206        O209   1.266       .  A
Cd207       O214   2.475       .  S
Cd207       O213   2.461       .  S
Cd207       O212   2.489       .  S
Cd207       O208   2.447       .  S
Cd207       O211   2.488       .  S
Cd207       O209   2.481       .  S
C210        C266   1.483       .  S
C210        O214   1.265       .  A
O215        C218   1.267       .  A
O215       Cd220   2.501       .  S
C216        C322   1.475       .  S
C216        O225   1.263       .  A
C216        O221   1.266       .  A
O217        C223   1.266       .  A
O217       Cd220   2.485       .  S
C218        C374   1.480       .  S
C218        O226   1.263       .  A
C219        C248   1.481       .  S
C219        O224   1.264   1_655  A
C219        O222   1.265       .  A
Cd220       O227   2.466       .  S
Cd220       O226   2.471       .  S
Cd220       O225   2.466       .  S
Cd220       O221   2.471       .  S
Cd220       O224   2.459       .  S
Cd220       O222   2.501   1_455  S
C223        C304   1.477       .  S
C223        O227   1.265       .  A
O228        C231   1.268       .  A
O228       Cd233   2.485       .  S
C229        C610   1.479       .  S
C229        O238   1.267       .  A
C229        O234   1.264       .  A
O230        C236   1.269       .  A
O230       Cd233   2.511       .  S
C231        C340   1.481       .  S
C231        O239   1.266       .  A
C232        C268   1.481       .  S
C232        O237   1.266       .  A
C232        O235   1.263       .  A
Cd233       O240   2.452       .  S
Cd233       O239   2.478       .  S
Cd233       O238   2.498       .  S
Cd233       O234   2.450       .  S
Cd233       O237   2.511       .  S
Cd233       O235   2.470       .  S
C236        C250   1.479       .  S
C236        O240   1.263       .  A
C241        C242   1.405       .  A
C241        C246   1.407       .  A
C241        C249   1.492       .  S
C242        C243   1.403       .  A
C242        H251   1.083       .  S
C243        C244   1.408       .  A
C243        H252   1.082       .  S
C244        C245   1.403       .  A
C244        C247   1.488       .  S
C245        C246   1.398       .  A
C245        H253   1.084       .  S
C246        H254   1.082       .  S
C247        H255   1.087       .  S
C247        C248   1.347       .  D
C248        H256   1.085       .  S
C249        H257   1.087       .  S
C249        C250   1.346       .  D
C250        H258   1.085       .  S
C259        C260   1.406       .  A
C259        C264   1.408       .  A
C259        C267   1.496       .  S
C260        C261   1.404       .  A
C260        H269   1.083       .  S
C261        C262   1.409       .  A
C261        H270   1.080       .  S
C262        C263   1.405       .  A
C262        C265   1.495   1_554  S
C263        C264   1.399       .  A
C263        H271   1.083       .  S
C264        H272   1.081       .  S
C265        H273   1.087       .  S
C265        C266   1.349       .  D
C266        H274   1.083       .  S
C267        H275   1.087       .  S
C267        C268   1.349       .  D
C268        H276   1.084       .  S
C277        C278   1.404       .  A
C277        C282   1.410       .  A
C277        C285   1.492   1_455  S
C278        C279   1.398       .  A
C278        H287   1.083       .  S
C279        C280   1.407       .  A
C279        H288   1.082       .  S
C280        C281   1.404       .  A
C280        C283   1.489       .  S
C281        C282   1.403       .  A
C281        H289   1.083       .  S
C282        H290   1.081       .  S
C283        H291   1.087       .  S
C283        C284   1.345       .  D
C284        H292   1.086       .  S
C285        H293   1.087       .  S
C285        C286   1.348       .  D
C286        H294   1.084   1_655  S
C295        C296   1.404       .  A
C295        C300   1.406       .  A
C295        C303   1.485       .  S
C296        C297   1.401       .  A
C296        H305   1.083       .  S
C297        C298   1.406       .  A
C297        H306   1.082       .  S
C298        C299   1.403       .  A
C298        C301   1.483       .  S
C299        C300   1.397       .  A
C299        H307   1.084       .  S
C300        H308   1.082       .  S
C301        H309   1.087       .  S
C301        C302   1.347       .  D
C302        H310   1.086       .  S
C303        H311   1.087       .  S
C303        C304   1.346       .  D
C304        H312   1.086       .  S
C313        C314   1.402       .  A
C313        C318   1.410       .  A
C313        C321   1.490       .  S
C314        C315   1.395       .  A
C314        H323   1.084       .  S
C315        C316   1.409       .  A
C315        H324   1.078       .  S
C316        C317   1.404       .  A
C316        C319   1.492       .  S
C317        C318   1.400       .  A
C317        H325   1.084       .  S
C318        H326   1.079       .  S
C319        H327   1.087       .  S
C319        C320   1.346       .  D
C320        H328   1.081       .  S
C321        H329   1.087       .  S
C321        C322   1.345       .  D
C322        H330   1.082       .  S
C331        C332   1.404       .  A
C331        C336   1.408       .  A
C331        C339   1.492       .  S
C332        C333   1.399       .  A
C332        H341   1.083       .  S
C333        C334   1.408       .  A
C333        H342   1.080       .  S
C334        C335   1.405       .  A
C334        C337   1.491       .  S
C335        C336   1.401       .  A
C335        H343   1.083       .  S
C336        H344   1.081       .  S
C337        H345   1.088       .  S
C337        C338   1.346       .  D
C338        H346   1.083       .  S
C339        H347   1.087       .  S
C339        C340   1.347       .  D
C340        H348   1.084       .  S
C349        C350   1.404       .  A
C349        C354   1.409       .  A
C349        C357   1.492       .  S
C350        C351   1.399       .  A
C350        H359   1.084       .  S
C351        C352   1.409       .  A
C351        H360   1.080       .  S
C352        C353   1.404       .  A
C352        C355   1.492       .  S
C353        C354   1.401       .  A
C353        H361   1.083       .  S
C354        H362   1.080       .  S
C355        H363   1.086       .  S
C355        C356   1.347       .  D
C356        H364   1.084       .  S
C357        H365   1.087       .  S
C357        C358   1.347       .  D
C358        H366   1.084       .  S
C367        C368   1.407       .  A
C367        C372   1.410       .  A
C367        C375   1.495       .  S
C368        C369   1.403       .  A
C368        H377   1.083       .  S
C369        C370   1.407       .  A
C369        H378   1.082       .  S
C370        C371   1.401       .  A
C370        C373   1.488       .  S
C371        C372   1.397       .  A
C371        H379   1.083       .  S
C372        H380   1.079       .  S
C373        H381   1.087       .  S
C373        C374   1.345       .  D
C374        H382   1.086       .  S
C375        H383   1.087       .  S
C375        C376   1.349       .  D
C376        H384   1.083       .  S
C385        C386   1.405       .  A
C385        C390   1.411       .  A
C385        C393   1.494       .  S
C386        C387   1.398       .  A
C386        H395   1.083       .  S
C387        C388   1.406       .  A
C387        H396   1.082       .  S
C388        C389   1.402   1_545  A
C388        C391   1.486       .  S
C389        C390   1.401   1_565  A
C389        H397   1.083       .  S
C390        H398   1.079   1_545  S
C391        H399   1.086   1_545  S
C391        C392   1.346       .  D
C392        H400   1.086       .  S
C393        H401   1.087       .  S
C393        C394   1.348       .  D
C394        H402   1.082   1_545  S
C403        C404   1.405       .  A
C403        C408   1.409       .  A
C403        C411   1.493       .  S
C404        C405   1.400       .  A
C404        H413   1.083       .  S
C405        C406   1.406       .  A
C405        H414   1.082       .  S
C406        C407   1.403       .  A
C406        C409   1.487       .  S
C407        C408   1.401       .  A
C407        H415   1.083       .  S
C408        H416   1.081       .  S
C409        H417   1.087       .  S
C409        C410   1.346       .  D
C410        H418   1.086       .  S
C411        H419   1.087   1_565  S
C411        C412   1.349       .  D
C412        H420   1.084       .  S
C421        C422   1.402       .  A
C421        C426   1.408       .  A
C421        C429   1.489       .  S
C422        C423   1.401       .  A
C422        H431   1.083       .  S
C423        C424   1.410       .  A
C423        H432   1.080       .  S
C424        C425   1.404       .  A
C424        C427   1.492       .  S
C425        C426   1.397       .  A
C425        H433   1.083       .  S
C426        H434   1.082       .  S
C427        H435   1.087       .  S
C427        C428   1.347       .  D
C428        H436   1.083       .  S
C429        H437   1.087       .  S
C429        C430   1.345       .  D
C430        H438   1.085       .  S
C439        C440   1.405       .  A
C439        C444   1.409       .  A
C439        C447   1.495       .  S
C440        C441   1.402       .  A
C440        H449   1.083       .  S
C441        C442   1.408       .  A
C441        H450   1.082       .  S
C442        C443   1.403       .  A
C442        C445   1.493       .  S
C443        C444   1.402       .  A
C443        H451   1.083       .  S
C444        H452   1.081       .  S
C445        H453   1.087       .  S
C445        C446   1.345       .  D
C446        H454   1.086       .  S
C447        H455   1.087       .  S
C447        C448   1.350       .  D
C448        H456   1.085       .  S
C457        C458   1.405       .  A
C457        C462   1.405       .  A
C457        C465   1.486       .  S
C458        C459   1.399       .  A
C458        H467   1.084       .  S
C459        C460   1.407       .  A
C459        H468   1.082       .  S
C460        C461   1.405       .  A
C460        C463   1.490       .  S
C461        C462   1.401       .  A
C461        H469   1.083       .  S
C462        H470   1.082       .  S
C463        H471   1.087       .  S
C463        C464   1.347       .  D
C464        H472   1.085       .  S
C465        H473   1.087       .  S
C465        C466   1.349       .  D
C466        H474   1.085       .  S
C475        C476   1.404       .  A
C475        C480   1.407       .  A
C475        C483   1.489       .  S
C476        C477   1.401       .  A
C476        H485   1.083       .  S
C477        C478   1.409       .  A
C477        H486   1.081       .  S
C478        C479   1.404       .  A
C478        C481   1.489   1_556  S
C479        C480   1.397       .  A
C479        H487   1.084       .  S
C480        H488   1.082       .  S
C481        H489   1.087       .  S
C481        C482   1.347       .  D
C482        H490   1.084       .  S
C483        H491   1.087       .  S
C483        C484   1.346       .  D
C484        H492   1.085       .  S
C493        C494   1.405       .  A
C493        C498   1.410       .  A
C493        C501   1.496       .  S
C494        C495   1.401       .  A
C494        H503   1.083       .  S
C495        C496   1.408       .  A
C495        H504   1.081       .  S
C496        C497   1.403       .  A
C496        C499   1.489       .  S
C497        C498   1.399       .  A
C497        H505   1.084       .  S
C498        H506   1.080       .  S
C499        H507   1.087   1_545  S
C499        C500   1.346       .  D
C500        H508   1.085       .  S
C501        H509   1.087       .  S
C501        C502   1.347       .  D
C502        H510   1.083       .  S
C511        C512   1.402       .  A
C511        C516   1.407       .  A
C511        C519   1.487       .  S
C512        C513   1.400       .  A
C512        H521   1.083       .  S
C513        C514   1.410       .  A
C513        H522   1.081       .  S
C514        C515   1.405       .  A
C514        C517   1.494       .  S
C515        C516   1.402       .  A
C515        H523   1.083       .  S
C516        H524   1.082       .  S
C517        H525   1.087       .  S
C517        C518   1.347       .  D
C518        H526   1.084       .  S
C519        H527   1.087       .  S
C519        C520   1.346       .  D
C520        H528   1.086       .  S
C529        C530   1.401       .  A
C529        C534   1.407       .  A
C529        C537   1.485       .  S
C530        C531   1.399       .  A
C530        H539   1.084       .  S
C531        C532   1.413       .  A
C531        H540   1.079       .  S
C532        C533   1.403       .  A
C532        C535   1.493       .  S
C533        C534   1.397       .  A
C533        H541   1.083       .  S
C534        H542   1.082       .  S
C535        H543   1.087       .  S
C535        C536   1.344       .  D
C536        H544   1.082       .  S
C537        H545   1.087       .  S
C537        C538   1.344       .  D
C538        H546   1.085       .  S
C547        C548   1.404       .  A
C547        C552   1.407       .  A
C547        C555   1.488       .  S
C548        C549   1.402       .  A
C548        H557   1.083       .  S
C549        C550   1.407       .  A
C549        H558   1.082       .  S
C550        C551   1.401       .  A
C550        C553   1.483       .  S
C551        C552   1.397       .  A
C551        H559   1.084       .  S
C552        H560   1.082       .  S
C553        H561   1.087       .  S
C553        C554   1.345       .  D
C554        H562   1.086       .  S
C555        H563   1.087       .  S
C555        C556   1.346       .  D
C556        H564   1.085       .  S
C565        C566   1.404       .  A
C565        C570   1.410       .  A
C565        C573   1.493       .  S
C566        C567   1.396       .  A
C566        H575   1.083       .  S
C567        C568   1.406       .  A
C567        H576   1.081       .  S
C568        C569   1.406       .  A
C568        C571   1.493       .  S
C569        C570   1.405       .  A
C569        H577   1.083       .  S
C570        H578   1.080       .  S
C571        H579   1.086       .  S
C571        C572   1.350       .  D
C572        H580   1.085       .  S
C573        H581   1.087       .  S
C573        C574   1.347       .  D
C574        H582   1.083       .  S
C583        C584   1.405       .  A
C583        C588   1.409       .  A
C583        C591   1.495       .  S
C584        C585   1.401       .  A
C584        H593   1.083       .  S
C585        C586   1.409       .  A
C585        H594   1.080       .  S
C586        C587   1.404       .  A
C586        C589   1.492       .  S
C587        C588   1.399       .  A
C587        H595   1.084       .  S
C588        H596   1.080       .  S
C589        H597   1.087       .  S
C589        C590   1.347       .  D
C590        H598   1.083       .  S
C591        H599   1.087       .  S
C591        C592   1.349       .  D
C592        H600   1.083       .  S
C601        C602   1.403       .  A
C601        C606   1.407       .  A
C601        C609   1.485       .  S
C602        C603   1.397       .  A
C602        H611   1.083       .  S
C603        C604   1.406       .  A
C603        H612   1.082       .  S
C604        C605   1.405       .  A
C604        C607   1.487       .  S
C605        C606   1.402       .  A
C605        H613   1.083       .  S
C606        H614   1.082       .  S
C607        H615   1.086       .  S
C607        C608   1.349       .  D
C608        H616   1.085       .  S
C609        H617   1.087       .  S
C609        C610   1.347       .  D
C610        H618   1.085       .  S
C619        C620   1.404       .  A
C619        C624   1.408       .  A
C619        C627   1.490       .  S
C620        C621   1.398       .  A
C620        H629   1.083       .  S
C621        C622   1.408       .  A
C621        H630   1.079       .  S
C622        C623   1.406       .  A
C622        C625   1.492       .  S
C623        C624   1.400       .  A
C623        H631   1.084       .  S
C624        H632   1.080       .  S
C625        H633   1.088       .  S
C625        C626   1.350       .  D
C626        H634   1.081       .  S
C627        H635   1.087       .  S
C627        C628   1.347       .  D
C628        H636   1.083       .  S
C637        C638   1.406       .  A
C637        C642   1.408       .  A
C637        C645   1.494       .  S
C638        C639   1.402       .  A
C638        H647   1.083       .  S
C639        C640   1.409       .  A
C639        H648   1.082       .  S
C640        C641   1.403       .  A
C640        C643   1.492       .  S
C641        C642   1.399       .  A
C641        H649   1.083       .  S
C642        H650   1.081       .  S
C643        H651   1.087       .  S
C643        C644   1.347       .  D
C644        H652   1.085       .  S
C645        H653   1.087       .  S
C645        C646   1.348       .  D
C646        H654   1.084       .  S
C655        C656   1.406       .  A
C655        C660   1.411       .  A
C655        C663   1.495       .  S
C656        C657   1.401       .  A
C656        H665   1.083       .  S
C657        C658   1.408       .  A
C657        H666   1.082       .  S
C658        C659   1.401       .  A
C658        C661   1.488       .  S
C659        C660   1.400       .  A
C659        H667   1.083       .  S
C660        H668   1.079       .  S
C661        H669   1.087       .  S
C661        C662   1.344       .  D
C662        H670   1.085   1_556  S
C663        H671   1.087       .  S
C663        C664   1.348       .  D
C664        H672   1.082       .  S
