geometry optimzed in LAMMPS
_audit_creation_date              2020-11-30 
_audit_creation_method            'lammps2cif' 
_symmetry_space_group_name_H-M    'P1' 
_symmetry_Int_Tables_number       1 
_symmetry_cell_setting            triclinic 
loop_ 
_symmetry_equiv_pos_as_xyz 
  x,y,z 
_cell_length_a                    24.73034346 
_cell_length_b                    24.68956420110137 
_cell_length_c                    14.898187030065436 
_cell_angle_alpha                 90.35774341094005 
_cell_angle_beta                  89.92500986704111 
_cell_angle_gamma                 92.81014466554397 
loop_ 
_atom_site_label 
_atom_site_type_symbol 
_atom_site_fract_x 
_atom_site_fract_y 
_atom_site_fract_z 
_atom_site_charge 
O1          O  0.02012684  0.94478570  0.10635696    -0.71100
O2          O  0.87216379  0.98987505  0.11869816    -0.71300
O3          O  0.92142643  0.89126344  0.11001077    -0.71200
O4          O  0.97386863  0.04253010  0.11547779    -0.71200
O5          O  0.92429124  0.04264241  0.49850209    -0.71100
O6          O  0.96584515  0.89424441  0.49068359    -0.71200
O7          O  0.86883982  0.94401888  0.50137060    -0.71100
O8          O  0.02133685  0.99323957  0.48841989    -0.71300
V9          V  0.94709338  0.96717693  0.11634710     1.35200
V10         V  0.94472149  0.96882505  0.49088796     1.35200
C11         C  0.04814783  0.96934748  0.04811876     0.78100
C12         C  0.84299300  0.96780241  0.56110932     0.78200
C13         C  0.94358497  0.86480691  0.04897052     0.78100
C14         C  0.95007602  0.07000811  0.55711395     0.78000
O15         O  0.36357194  0.46751166  0.33247211    -0.71100
O16         O  0.51361546  0.51523504  0.34632129    -0.71300
O17         O  0.46118549  0.41326364  0.34836999    -0.71200
O18         O  0.41963654  0.56130450  0.33879952    -0.71200
O19         O  0.44954312  0.56211938  0.47284468    -0.71100
O20         O  0.40853901  0.40983166  0.45613426    -0.71200
O21         O  0.50878121  0.47251319  0.46900344    -0.71100
O22         O  0.35740268  0.50514229  0.46053616    -0.71300
V23         V  0.43933534  0.48838326  0.33963128     1.35200
V24         V  0.43178740  0.48681054  0.46803735     1.35200
C25         C  0.33390223  0.48585495  0.39260059     0.78100
C26         C  0.53839601  0.49643659  0.41102198     0.78200
C27         C  0.43395733  0.38327649  0.40017249     0.78100
C28         C  0.43326811  0.58723956  0.40718598     0.78000
C29         C  0.42827592  0.93719353  0.13762747    -0.01800
C30         C  0.43030809  0.97437496  0.25957347    -0.01800
C31         C  0.45701313  0.95010688  0.50913406    -0.01800
C32         C  0.46124593  0.98563591  0.38412959    -0.01800
O33         O  0.86910888  0.97299292  0.35819867    -0.71100
O34         O  0.01701406  0.92860868  0.36623118    -0.71300
O35         O  0.96719477  0.02632094  0.36336175    -0.71200
O36         O  0.91490680  0.87503542  0.36187314    -0.71200
O37         O  0.96421307  0.87649283  0.24479616    -0.71100
O38         O  0.92203361  0.02520563  0.24408584    -0.71200
O39         O  0.01875232  0.97619108  0.24931603    -0.71100
O40         O  0.86678411  0.92610321  0.23883581    -0.71300
V41         V  0.94189842  0.95043107  0.36622365     1.35200
V42         V  0.94328950  0.95062901  0.24053029     1.35200
C43         C  0.84075026  0.94974585  0.29880645     0.78100
C44         C  0.04536874  0.95323089  0.30825310     0.78200
C45         C  0.94451462  0.05319809  0.30437484     0.78100
C46         C  0.93816598  0.84866513  0.30214631     0.78000
O47         O  0.52222240  0.41500527  0.09492165    -0.71100
O48         O  0.37207183  0.45201968  0.08661165    -0.71300
O49         O  0.47257716  0.51168442  0.09954625    -0.71200
O50         O  0.42848896  0.35948027  0.08351794    -0.71200
O51         O  0.45958313  0.35915465  0.21667733    -0.71100
O52         O  0.42003461  0.50883162  0.20725244    -0.71200
O53         O  0.36560722  0.40846432  0.20786506    -0.71100
O54         O  0.51636208  0.45229475  0.22384742    -0.71300
V55         V  0.44817327  0.43485826  0.08775673     1.35200
V56         V  0.44048733  0.43295641  0.21596989     1.35200
C57         C  0.54574612  0.43290390  0.16415455     0.78100
C58         C  0.34158627  0.43127581  0.14600954     0.78200
C59         C  0.44685350  0.53871707  0.15447834     0.78100
C60         C  0.44640315  0.33360208  0.14738342     0.78000
C61         C  0.95485295  0.44308510  0.33309790    -0.01800
C62         C  0.91969209  0.44512384  0.45515198    -0.01800
C63         C  0.95829968  0.47095067  0.20287460    -0.01800
C64         C  0.92416073  0.47566888  0.07941600    -0.01800
C65         C  0.10438382  0.47372870  0.13732704     0.21000
C66         C  0.15451116  0.49903512  0.11240218    -0.38900
C67         C  0.20088063  0.47020958  0.13262460     0.20000
C68         C  0.19719934  0.42013169  0.17398041     0.22600
C69         C  0.14706323  0.39497055  0.19741240    -0.39400
C70         C  0.10135739  0.42447416  0.17857047     0.21400
N71         N  0.05428974  0.49190543  0.12643309    -0.32600
C72         C  0.01855808  0.45829365  0.17235773    -0.10200
C73         C  0.04753827  0.41269508  0.19427466    -0.29000
N74         N  0.24657561  0.40046708  0.18498596    -0.45600
C75         C  0.28222637  0.43726167  0.14774886    -0.04900
C76         C  0.25531581  0.48183767  0.11568501    -0.22200
H77         H  0.15719257  0.53796011  0.07929586     0.19600
H78         H  0.14390667  0.35586963  0.22994681     0.18400
H79         H  0.03177234  0.37203686  0.19853756     0.14600
H80         H  0.27311797  0.51777206  0.08396944     0.14500
H81         H  0.04618050  0.52460850  0.08652176     0.32700
H82         H  0.25546270  0.36371334  0.21459020     0.35400
C83         C  0.68797031  0.41912037  0.17595405     0.21000
C84         C  0.73817770  0.39368907  0.17947634    -0.38900
C85         C  0.78422905  0.42716059  0.15754075     0.20000
C86         C  0.77833210  0.47933973  0.13002190     0.22600
C87         C  0.72956125  0.50454309  0.12694300    -0.39400
C88         C  0.68500739  0.47301802  0.15248143     0.21400
N89         N  0.63756683  0.39684245  0.18628536    -0.32600
C90         C  0.60417369  0.43782583  0.16993995    -0.10200
C91         C  0.63218148  0.48565447  0.14925851    -0.29000
N92         N  0.82328611  0.49931422  0.09409612    -0.45600
C93         C  0.86364579  0.46506210  0.10957876    -0.04900
C94         C  0.83876441  0.41696024  0.14278489    -0.22200
H95         H  0.74089086  0.35116805  0.19495925     0.19600
H96         H  0.72638205  0.54532912  0.10171458     0.18400
H97         H  0.61585841  0.52356446  0.12872990     0.14600
H98         H  0.85557869  0.37773853  0.13891869     0.14500
H99         H  0.62650473  0.35644801  0.20053429     0.32700
H100        H  0.82121299  0.53197514  0.05086524     0.35400
C101        C  0.92057837  0.19471680  0.28242041     0.21000
C102        C  0.89240452  0.24217499  0.26297404    -0.38900
C103        C  0.92125469  0.29237040  0.27972660     0.20000
C104        C  0.97300063  0.29334045  0.31199107     0.22600
C105        C  0.00066728  0.24685333  0.33184646    -0.39400
C106        C  0.97236698  0.19776154  0.31731634     0.21400
N107        N  0.90362246  0.14218813  0.27298306    -0.32600
C108        C  0.94466782  0.11271963  0.30447132    -0.10200
C109        C  0.98797507  0.14605789  0.33324849    -0.29000
N110        N  0.99178389  0.34373127  0.32682232    -0.45600
C111        C  0.95220611  0.37926167  0.30935498    -0.04900
C112        C  0.90723634  0.34693850  0.27768718    -0.22200
H113        H  0.85135829  0.24010355  0.23773746     0.19600
H114        H  0.04107759  0.24903629  0.35993311     0.18400
H115        H  0.02612641  0.13403234  0.36043455     0.14600
H116        H  0.86650607  0.35976346  0.27322204     0.14500
H117        H  0.86653822  0.12719168  0.24727871     0.32700
H118        H  0.03317930  0.34951159  0.33509841     0.35400
C119        C  0.96985823  0.71203068  0.27620901     0.21000
C120        C  0.00275405  0.67128583  0.24920025    -0.38900
C121        C  0.97921312  0.61929559  0.25240281     0.20000
C122        C  0.92809054  0.60696462  0.28437383     0.22600
C123        C  0.89422211  0.64837300  0.31246837    -0.39400
C124        C  0.91740654  0.70185506  0.30688031     0.21400
N125        N  0.98256767  0.76491094  0.27143861    -0.32600
C126        C  0.93859870  0.78973563  0.30042018    -0.10200
C127        C  0.89666759  0.75214126  0.32377622    -0.29000
N128        N  0.91557277  0.55356452  0.27107993    -0.45600
C129        C  0.95874658  0.53163393  0.23145100    -0.04900
C130        C  0.99841532  0.57383803  0.21634520    -0.22200
H131        H  0.04284057  0.67982229  0.22188361     0.19600
H132        H  0.85288030  0.63988199  0.33395164     0.18400
H133        H  0.85649522  0.76047374  0.34732254     0.14600
H134        H  0.03963825  0.57424447  0.19445975     0.14500
H135        H  0.01907313  0.78320259  0.24894596     0.32700
H136        H  0.87718298  0.53477680  0.27051729     0.35400
C137        C  0.61091655  0.99343174  0.35621163     0.21000
C138        C  0.66281971  0.01390249  0.37665290    -0.38900
C139        C  0.70458999  0.98614564  0.33892877     0.20000
C140        C  0.69597987  0.94046800  0.28580828     0.22600
C141        C  0.64296231  0.92113194  0.26256974    -0.39400
C142        C  0.60056719  0.95131622  0.29783973     0.21400
N143        N  0.56562231  0.00949128  0.39323293    -0.32600
C144        C  0.52290361  0.98021156  0.35707780    -0.10200
C145        C  0.54455245  0.94579232  0.29137159    -0.29000
N146        N  0.74390087  0.92051177  0.26199839    -0.45600
C147        C  0.78204882  0.95454821  0.30079681    -0.04900
C148        C  0.75886741  0.99561648  0.34899942    -0.22200
H149        H  0.67014579  0.04823726  0.42126918     0.19600
H150        H  0.63535938  0.88556329  0.22090650     0.18400
H151        H  0.52243642  0.91692900  0.25029390     0.14600
H152        H  0.77920291  0.02772998  0.38790504     0.14500
H153        H  0.56696423  0.03910381  0.44249961     0.32700
H154        H  0.75026126  0.88601802  0.22326461     0.35400
C155        C  0.43501346  0.19529608  0.11493299     0.21000
C156        C  0.40529792  0.14711774  0.10742160    -0.38900
C157        C  0.43134102  0.10253021  0.13600097     0.22800
C158        C  0.48265477  0.10444553  0.17072442     0.22600
C159        C  0.51421941  0.15293518  0.17543071    -0.39400
C160        C  0.48757378  0.19869810  0.14802781     0.21400
N161        N  0.41463923  0.24361376  0.10789828    -0.32600
C162        C  0.45397628  0.27769752  0.13874660    -0.10200
C163        C  0.50040617  0.25231891  0.16357424    -0.29000
N164        N  0.49129207  0.05806392  0.21346025    -0.45600
C165        C  0.44328261  0.02888806  0.21278928    -0.04900
C166        C  0.40761119  0.05488548  0.15727377    -0.22200
H167        H  0.36282237  0.14518587  0.08935904     0.19600
H168        H  0.55315077  0.15584628  0.20868367     0.18400
H169        H  0.53664261  0.27036097  0.19441685     0.14600
H170        H  0.36568046  0.04622262  0.14392020     0.14500
H171        H  0.37506024  0.25247880  0.09078726     0.32700
H172        H  0.52844338  0.04824646  0.23922680     0.35400
C173        C  0.18853993  0.93915168  0.33240929     0.21000
C174        C  0.23712710  0.91339642  0.35016366    -0.38900
C175        C  0.28541062  0.94450453  0.33308585     0.20000
C176        C  0.28496693  0.99722700  0.30493828     0.22600
C177        C  0.23682489  0.02302312  0.28707472    -0.39400
C178        C  0.18883065  0.99154259  0.29987651     0.21400
N179        N  0.13722578  0.91854302  0.34077906    -0.32600
C180        C  0.10507142  0.95771824  0.31093669    -0.10200
C181        C  0.13587065  0.00355076  0.28412667    -0.29000
N182        N  0.33531097  0.01667073  0.28800335    -0.45600
C183        C  0.36932935  0.97458059  0.29350908    -0.04900
C184        C  0.33898562  0.93046586  0.32974397    -0.22200
H185        H  0.23735468  0.87178457  0.37242132     0.19600
H186        H  0.23687719  0.06381500  0.26086605     0.18400
H187        H  0.12130571  0.04096641  0.25804224     0.14600
H188        H  0.35204866  0.89105595  0.34202546     0.14500
H189        H  0.12482892  0.88015111  0.36428746     0.32700
H190        H  0.34383886  0.05784986  0.27732988     0.35400
C191        C  0.46968357  0.68717930  0.13705654     0.21000
C192        C  0.49826282  0.73791399  0.12090152    -0.38900
C193        C  0.47022283  0.78597088  0.13973126     0.20000
C194        C  0.41915971  0.78345830  0.17366046     0.22600
C195        C  0.39117369  0.73326476  0.19288790    -0.39400
C196        C  0.41805575  0.68539352  0.17229541     0.21400
N197        N  0.48658644  0.63582674  0.12507068    -0.32600
C198        C  0.44585464  0.60067479  0.15450249    -0.10200
C199        C  0.40235749  0.63081282  0.18376034    -0.29000
N200        N  0.40339309  0.83395156  0.19254201    -0.45600
C201        C  0.44019983  0.87283370  0.16084508    -0.04900
C202        C  0.48531225  0.84156872  0.13774518    -0.22200
H203        H  0.53924338  0.73988238  0.09522516     0.19600
H204        H  0.35118746  0.73162853  0.22260780     0.18400
H205        H  0.36416513  0.61485775  0.21055537     0.14600
H206        H  0.52682551  0.85525699  0.13890479     0.14500
H207        H  0.52400217  0.62526981  0.09945280     0.32700
H208        H  0.37725545  0.83846261  0.24508148     0.35400
C209        C  0.78280496  0.49595886  0.39209906     0.21000
C210        C  0.74193188  0.53422220  0.38052036    -0.38900
C211        C  0.68714949  0.51388555  0.39302996     0.20000
C212        C  0.67560953  0.46079323  0.41848171     0.22600
C213        C  0.71582542  0.42384365  0.92843193    -0.39400
C214        C  0.76811527  0.44365133  0.41356594     0.21400
N215        N  0.83773295  0.50386811  0.40170131    -0.32600
C216        C  0.85848304  0.45532528  0.42548299    -0.10200
C217        C  0.81340851  0.41918141  0.93758720    -0.29000
N218        N  0.62278956  0.45021233  0.43247187    -0.45600
C219        C  0.59816909  0.49599314  0.41318218    -0.04900
C220        C  0.63677972  0.53718959  0.38779465    -0.22200
H221        H  0.75187385  0.57641983  0.36593565     0.19600
H222        H  0.70650784  0.38299232  0.95178286     0.18400
H223        H  0.80765080  0.38572252  0.98266429     0.14600
H224        H  0.62900608  0.57818809  0.36809440     0.14500
H225        H  0.85806847  0.54171142  0.40733835     0.32700
H226        H  0.60479284  0.41287712  0.95172213     0.35400
C227        C  0.46439624  0.24039099  0.38747343     0.21000
C228        C  0.49844103  0.19661910  0.38257739    -0.38900
C229        C  0.47378614  0.14419582  0.39287723     0.20000
C230        C  0.41979570  0.13419459  0.40506711     0.22600
C231        C  0.38461502  0.17856347  0.40838593    -0.39400
C232        C  0.40935215  0.23219178  0.40064561     0.21400
N233        N  0.47918305  0.29387416  0.38376847    -0.32600
C234        C  0.43378209  0.32169892  0.39699339    -0.10200
C235        C  0.38913793  0.28429774  0.40781022    -0.29000
N236        N  0.40843011  0.07929859  0.41250700    -0.45600
C237        C  0.45555283  0.05183730  0.40140649    -0.04900
C238        C  0.49618223  0.09485778  0.38836284    -0.22200
H239        H  0.54163818  0.20288828  0.37235053     0.19600
H240        H  0.34154779  0.17204785  0.41922832     0.18400
H241        H  0.34758900  0.29391422  0.42037866     0.14600
H242        H  0.53673569  0.09513189  0.36285890     0.14500
H243        H  0.51841083  0.31065150  0.37496612     0.32700
H244        H  0.36963820  0.06281886  0.42238447     0.35400
C245        C  0.40374553  0.81652758  0.43455284     0.21000
C246        C  0.37347007  0.76843114  0.44842217    -0.38900
C247        C  0.39974150  0.72231199  0.42327045     0.20000
C248        C  0.45088316  0.72456845  0.38419979     0.22600
C249        C  0.47891925  0.77251984  0.36520590    -0.39400
C250        C  0.45308819  0.81795530  0.39274117     0.21400
N251        N  0.39587482  0.86374650  0.47443081    -0.32600
C252        C  0.44256727  0.89457516  0.46447835    -0.10200
C253        C  0.47584343  0.86723177  0.40563790    -0.29000
N254        N  0.46991556  0.67578573  0.37522622    -0.45600
C255        C  0.43039046  0.64320680  0.40928745    -0.04900
C256        C  0.38582374  0.66949982  0.43933962    -0.22200
H257        H  0.33572222  0.76669353  0.48539822     0.19600
H258        H  0.51985700  0.77414332  0.33903608     0.18400
H259        H  0.51625426  0.87556240  0.38500040     0.14600
H260        H  0.34924658  0.65231159  0.47011258     0.14500
H261        H  0.35889800  0.87168618  0.50151767     0.32700
H262        H  0.50712700  0.66526376  0.34872076     0.35400
C263        C  0.19380363  0.45377495  0.41050582     0.21000
C264        C  0.14742408  0.42313092  0.43606522    -0.38900
C265        C  0.09855419  0.44659874  0.41721163     0.20000
C266        C  0.09576759  0.49539645  0.37599202     0.22600
C267        C  0.14195617  0.52786630  0.35440807    -0.39400
C268        C  0.19130596  0.50473823  0.37269244     0.21400
N269        N  0.24512062  0.43986194  0.41870143    -0.32600
C270        C  0.27537901  0.48243640  0.38661684    -0.10200
C271        C  0.24365197  0.52385562  0.35740169    -0.29000
N272        N  0.04464289  0.50377552  0.35397688    -0.45600
C273        C  0.01369257  0.45815290  0.37227637    -0.04900
C274        C  0.04687540  0.42562435  0.42427825    -0.22200
H275        H  0.14920413  0.38341918  0.46597198     0.19600
H276        H  0.13962687  0.56649697  0.32103467     0.18400
H277        H  0.25712049  0.56270630  0.32995729     0.14600
H278        H  0.03893600  0.38714980  0.45462600     0.14500
H279        H  0.25887270  0.40435652  0.44664537     0.32700
H280        H  0.03271387  0.54220742  0.34447116     0.35400
C281        C  0.96025416  0.72217552  0.01203163     0.21000
C282        C  0.98441338  0.67346250  0.98406931    -0.38900
C283        C  0.95658871  0.62425088  0.00974958     0.20000
C284        C  0.91095356  0.62571290  0.06098973     0.22600
C285        C  0.88641960  0.67298177  0.08648901    -0.39400
C286        C  0.91267229  0.72088908  0.06060346     0.21400
N287        N  0.97799796  0.77531902  0.50219511    -0.32600
C288        C  0.94143702  0.80506181  0.04396767    -0.10200
C289        C  0.90026785  0.77288826  0.08175083    -0.29000
N290        N  0.89733833  0.57730313  0.09247970    -0.45600
C291        C  0.92926031  0.53927743  0.05575418    -0.04900
C292        C  0.96818271  0.56902586  0.00372922    -0.22200
H293        H  0.02251412  0.67506778  0.44910339     0.19600
H294        H  0.85060949  0.67232589  0.12845583     0.18400
H295        H  0.86604304  0.78581204  0.12037309     0.14600
H296        H  0.00313192  0.55372200  0.97353797     0.14500
H297        H  0.01299989  0.78927574  0.46858273     0.32700
H298        H  0.86826747  0.57457326  0.14262887     0.35400
C299        C  0.69977378  0.98514220  0.08465085     0.21000
C300        C  0.65103042  0.01149763  0.10293666    -0.38900
C301        C  0.60223905  0.98101700  0.08346277     0.20000
C302        C  0.60334932  0.93079008  0.55007868     0.22600
C303        C  0.65112420  0.90486921  0.53190298    -0.39400
C304        C  0.69899879  0.93479105  0.54949333     0.21400
N305        N  0.75167046  0.00433301  0.09441125    -0.32600
C306        C  0.78312619  0.96575666  0.56396419    -0.10200
C307        C  0.75140798  0.92133109  0.53420747    -0.29000
N308        N  0.55411035  0.91196037  0.52695408    -0.45600
C309        C  0.51838700  0.95172192  0.54040690    -0.04900
C310        C  0.54808106  0.99469541  0.07951786    -0.22200
H311        H  0.65110469  0.05277536  0.12776280     0.19600
H312        H  0.65087717  0.86485118  0.50176660     0.18400
H313        H  0.76497896  0.88393825  0.50560540     0.14600
H314        H  0.53531989  0.03532784  0.08228699     0.14500
H315        H  0.76491593  0.04230355  0.11954904     0.32700
H316        H  0.54865474  0.87169288  0.50779259     0.35400
C317        C  0.18316099  0.93475196  0.08558203     0.21000
C318        C  0.22227585  0.90312674  0.12199897    -0.38900
C319        C  0.27556103  0.92108329  0.10616295     0.20000
C320        C  0.28998719  0.96500555  0.05502175     0.22600
C321        C  0.25037795  0.99814294  0.01915946    -0.39400
C322        C  0.19587755  0.98102169  0.03654019     0.21400
N323        N  0.12989372  0.92648497  0.09528677    -0.32600
C324        C  0.10715667  0.96682933  0.05065794    -0.10200
C325        C  0.14683842  0.00249779  0.01343999    -0.29000
N326        N  0.34445869  0.97249117  0.05405760    -0.45600
C327        C  0.36546763  0.93760981  0.11398846    -0.04900
C328        C  0.32118483  0.90317999  0.14305319    -0.22200
H329        H  0.21188214  0.86826261  0.16344643     0.19600
H330        H  0.26109206  0.03476583  0.98247220     0.18400
H331        H  0.14047992  0.03907655  0.47393809     0.14600
H332        H  0.31617266  0.87004396  0.18739723     0.14500
H333        H  0.11001872  0.89489685  0.13045806     0.32700
H334        H  0.36628243  0.00100535  0.01704750     0.35400
C335        C  0.95042046  0.30996751  0.04915792     0.21000
C336        C  0.98387777  0.27038960  0.08451828    -0.38900
C337        C  0.96428518  0.21594489  0.07208835     0.20000
C338        C  0.91502467  0.20438180  0.52994278     0.22600
C339        C  0.88297808  0.24321399  0.49566455    -0.39400
C340        C  0.90312684  0.29586653  0.50597034     0.21400
N341        N  0.95989153  0.36400794  0.04151648    -0.32600
C342        C  0.92102979  0.38417338  0.48726528    -0.10200
C343        C  0.88606773  0.33968696  0.46447912    -0.29000
N344        N  0.90514170  0.15142588  0.52124070    -0.45600
C345        C  0.94764495  0.12845163  0.55843757    -0.04900
C346        C  0.98565020  0.16655003  0.09254312    -0.22200
H347        H  0.02245341  0.28081396  0.11591800     0.19600
H348        H  0.84632575  0.23288520  0.45832972     0.18400
H349        H  0.85419287  0.33489724  0.41581837     0.14600
H350        H  0.02363441  0.15966357  0.12552226     0.14500
H351        H  0.99210729  0.38583005  0.06775904     0.32700
H352        H  0.87158434  0.13196303  0.49014065     0.35400
O353        O  0.01991941  0.94565961  0.60605656    -0.71100
O354        O  0.87223975  0.99113490  0.61941583    -0.71300
O355        O  0.92125232  0.89232435  0.61060640    -0.71200
O356        O  0.97406867  0.04347136  0.61506630    -0.71200
O357        O  0.92450852  0.04176010  0.99840968    -0.71100
O358        O  0.96631750  0.89344987  0.99040150    -0.71200
O359        O  0.86910369  0.94297550  0.00044294    -0.71100
O360        O  0.02165066  0.99257821  0.98896418    -0.71300
V361        V  0.94707111  0.96821231  0.61650522     1.35200
V362        V  0.94506214  0.96799152  0.99079642     1.35200
C363        C  0.04787137  0.97006838  0.54762293     0.78100
C364        C  0.84304785  0.96658748  0.06016781     0.78200
C365        C  0.94326475  0.86572894  0.54960938     0.78100
C366        C  0.95008264  0.06911676  0.05729774     0.78000
O367        O  0.36413472  0.46738674  0.83223403    -0.71100
O368        O  0.51423055  0.51484784  0.84663360    -0.71300
O369        O  0.46155564  0.41296895  0.84815784    -0.71200
O370        O  0.42043915  0.56114269  0.83881043    -0.71200
O371        O  0.44984918  0.56182157  0.97312168    -0.71100
O372        O  0.40901261  0.40958657  0.95622448    -0.71200
O373        O  0.50916618  0.47223393  0.96941306    -0.71100
O374        O  0.35776879  0.50479537  0.96039517    -0.71300
V375        V  0.43991815  0.48815168  0.83960106     1.35200
V376        V  0.43217512  0.48652124  0.96812454     1.35200
C377        C  0.33437351  0.48563772  0.89228006     0.78100
C378        C  0.53888328  0.49616319  0.91156823     0.78200
C379        C  0.43436578  0.38303572  0.90017158     0.78100
C380        C  0.43385898  0.58700250  0.90735138     0.78000
C381        C  0.42806072  0.93727208  0.63763290    -0.01800
C382        C  0.43029429  0.97421042  0.75975833    -0.01800
C383        C  0.45692592  0.94983070  0.00888369    -0.01800
C384        C  0.46138533  0.98556770  0.88415737    -0.01800
O385        O  0.86985125  0.97402610  0.85832109    -0.71100
O386        O  0.01726966  0.92815203  0.86652624    -0.71300
O387        O  0.96846981  0.02640577  0.86367804    -0.71200
O388        O  0.91483368  0.87545324  0.86170001    -0.71200
O389        O  0.96431243  0.87664648  0.74480636    -0.71100
O390        O  0.92337105  0.02555734  0.74434960    -0.71200
O391        O  0.01958402  0.97575689  0.74969759    -0.71100
O392        O  0.86722083  0.92701205  0.73909225    -0.71300
V393        V  0.94243532  0.95068599  0.86627768     1.35200
V394        V  0.94395099  0.95088568  0.74066145     1.35200
C395        C  0.84132644  0.95084370  0.79905175     0.78100
C396        C  0.04587729  0.95257577  0.80877108     0.78200
C397        C  0.94613695  0.05340999  0.80450066     0.78100
C398        C  0.93806675  0.84896513  0.80204483     0.78000
O399        O  0.52182431  0.41513019  0.59424921    -0.71100
O400        O  0.37173695  0.45215682  0.58652347    -0.71300
O401        O  0.47211494  0.51177977  0.59924808    -0.71200
O402        O  0.42807290  0.35953492  0.58312447    -0.71200
O403        O  0.45940177  0.35907830  0.71610607    -0.71100
O404        O  0.41978374  0.50880896  0.70726807    -0.71200
O405        O  0.36532925  0.40842687  0.70761559    -0.71100
O406        O  0.51615515  0.45240169  0.72323552    -0.71300
V407        V  0.44777561  0.43494905  0.58744023     1.35200
V408        V  0.44026389  0.43292734  0.71570241     1.35200
C409        C  0.54547166  0.43314049  0.66328574     0.78100
C410        C  0.34129150  0.43134780  0.64585679     0.78200
C411        C  0.44644692  0.53874484  0.65433933     0.78100
C412        C  0.44610116  0.33356324  0.64678563     0.78000
C413        C  0.95526622  0.44314767  0.83294481    -0.01800
C414        C  0.92006813  0.44467694  0.95494049    -0.01800
C415        C  0.95837658  0.47131038  0.70279623    -0.01800
C416        C  0.92405633  0.47632742  0.57953700    -0.01800
C417        C  0.10417802  0.47376331  0.63576424     0.21000
C418        C  0.15431915  0.49899250  0.61076541    -0.38900
C419        C  0.20064624  0.47016672  0.63126215     0.20000
C420        C  0.19690448  0.42016861  0.67288625     0.22600
C421        C  0.14676374  0.39504510  0.69619744    -0.39400
C422        C  0.10112353  0.42452995  0.67706674     0.21400
N423        N  0.05413510  0.49217369  0.62554661    -0.32600
C424        C  0.01849022  0.45862147  0.67177786    -0.10200
C425        C  0.04739047  0.41293347  0.69336577    -0.29000
N426        N  0.24625471  0.40059792  0.68454348    -0.45600
C427        C  0.28196059  0.43735457  0.64740633    -0.04900
C428        C  0.25510948  0.48182049  0.61477162    -0.22200
H429        H  0.15705168  0.53791341  0.57764613     0.19600
H430        H  0.14356233  0.35606862  0.72912795     0.18400
H431        H  0.03156831  0.37231501  0.69797511     0.14600
H432        H  0.27296951  0.51771760  0.58303050     0.14500
H433        H  0.04606430  0.52514119  0.58621924     0.32700
H434        H  0.25508894  0.36393449  0.71448873     0.35400
C435        C  0.68779321  0.41975578  0.67490547     0.21000
C436        C  0.73806940  0.39451870  0.67900729    -0.38900
C437        C  0.78412820  0.42820217  0.65809069     0.20000
C438        C  0.77821875  0.48040328  0.63068589     0.22600
C439        C  0.72935747  0.50549361  0.62727466    -0.39400
C440        C  0.68475283  0.47373724  0.65201939     0.21400
N441        N  0.63743223  0.39725615  0.68453807    -0.32600
C442        C  0.60393258  0.43820333  0.66863952    -0.10200
C443        C  0.63185937  0.48622090  0.64867058    -0.29000
N444        N  0.82318964  0.50032005  0.59465363    -0.45600
C445        C  0.86355064  0.46601885  0.61010553    -0.04900
C446        C  0.83867201  0.41801394  0.64356555    -0.22200
H447        H  0.74084643  0.35195210  0.69408475     0.19600
H448        H  0.72615648  0.54632620  0.60226272     0.18400
H449        H  0.61545679  0.52421757  0.62879039     0.14600
H450        H  0.85540218  0.37878466  0.63938695     0.14500
H451        H  0.62647304  0.35677799  0.69835262     0.32700
H452        H  0.82110497  0.53291057  0.55126452     0.35400
C453        C  0.92257298  0.19478937  0.78172020     0.21000
C454        C  0.89426340  0.24208651  0.76208189    -0.38900
C455        C  0.92280302  0.29235350  0.77922841     0.20000
C456        C  0.97442430  0.29356762  0.81211151     0.22600
C457        C  0.00226615  0.24718720  0.83214070    -0.39400
C458        C  0.97424750  0.19796930  0.81710242     0.21400
N459        N  0.90572063  0.14227940  0.77224436    -0.32600
C460        C  0.94663985  0.11288964  0.80424819    -0.10200
C461        C  0.98988254  0.14626873  0.83327235    -0.29000
N462        N  0.99285198  0.34406321  0.82717071    -0.45600
C463        C  0.95310858  0.37934653  0.80917138    -0.04900
C464        C  0.90845941  0.34679199  0.77696479    -0.22200
H465        H  0.85332541  0.23983684  0.73637022     0.19600
H466        H  0.04253624  0.24953747  0.86077384     0.18400
H467        H  0.02791267  0.13428735  0.86099157     0.14600
H468        H  0.86765871  0.35931662  0.77215166     0.14500
H469        H  0.86871254  0.12723334  0.74632136     0.32700
H470        H  0.03424625  0.35018287  0.83555780     0.35400
C471        C  0.96989389  0.71245798  0.77578860     0.21000
C472        C  0.00289607  0.67174966  0.74889618    -0.38900
C473        C  0.97946172  0.61970612  0.75234885     0.20000
C474        C  0.92833600  0.60736900  0.78432855     0.22600
C475        C  0.89443051  0.64872650  0.81243338    -0.39400
C476        C  0.91751009  0.70221401  0.80672085     0.21400
N477        N  0.98245979  0.76534880  0.77091456    -0.32600
C478        C  0.93851142  0.79007674  0.80028274    -0.10200
C479        C  0.89670707  0.75243365  0.82388559    -0.29000
N480        N  0.91580299  0.55398130  0.77108295    -0.45600
C481        C  0.95896562  0.53199441  0.73155267    -0.04900
C482        C  0.99868354  0.57417917  0.71646279    -0.22200
H483        H  0.04296757  0.68033848  0.72155102     0.19600
H484        H  0.85313304  0.64017947  0.83409392     0.18400
H485        H  0.85660345  0.76068356  0.84785528     0.14600
H486        H  0.03995051  0.57444178  0.69476245     0.14500
H487        H  0.01887579  0.78371272  0.74817948     0.32700
H488        H  0.87738410  0.53529069  0.77038519     0.35400
C489        C  0.61120047  0.99365365  0.85742772     0.21000
C490        C  0.66306766  0.01402286  0.87853595    -0.38900
C491        C  0.70497831  0.98660334  0.84042357     0.20000
C492        C  0.69650501  0.94132670  0.78634969     0.22600
C493        C  0.64355253  0.92211128  0.76250588    -0.39400
C494        C  0.60103812  0.95196492  0.79815844     0.21400
N495        N  0.56574918  0.00949608  0.89427657    -0.32600
C496        C  0.52315059  0.98041055  0.85727231    -0.10200
C497        C  0.54503852  0.94648238  0.79109655    -0.29000
N498        N  0.74448496  0.92168158  0.76209468    -0.45600
C499        C  0.78257909  0.95554215  0.80142981    -0.04900
C500        C  0.75927447  0.99617223  0.85054332    -0.22200
H501        H  0.67026189  0.04809592  0.92373469     0.19600
H502        H  0.63607911  0.88683581  0.72013714     0.18400
H503        H  0.52302628  0.91811779  0.74896358     0.14600
H504        H  0.77954078  0.02808451  0.88997419     0.14500
H505        H  0.56679714  0.03900106  0.94378378     0.32700
H506        H  0.75092142  0.88750349  0.72263887     0.35400
C507        C  0.43445603  0.19512536  0.61432982     0.21000
C508        C  0.40462165  0.14694837  0.60732902    -0.38900
C509        C  0.43060769  0.10240629  0.63635895     0.22800
C510        C  0.48204471  0.10433086  0.67059932     0.22600
C511        C  0.51374206  0.15274665  0.67453745    -0.39400
C512        C  0.48711117  0.19849495  0.64703725     0.21400
N513        N  0.41416480  0.24350318  0.60729383    -0.32600
C514        C  0.45361506  0.27758658  0.63786396    -0.10200
C515        C  0.50007466  0.25212603  0.66232468    -0.29000
N516        N  0.49086768  0.05798674  0.71328868    -0.45600
C517        C  0.44287837  0.02881631  0.71317836    -0.04900
C518        C  0.40691550  0.05481378  0.65815085    -0.22200
H519        H  0.36212872  0.14503033  0.58937699     0.19600
H520        H  0.55281383  0.15564845  0.70733958     0.18400
H521        H  0.53641567  0.27011961  0.69289923     0.14600
H522        H  0.36492803  0.04606144  0.64523456     0.14500
H523        H  0.37453927  0.25241720  0.59041473     0.32700
H524        H  0.52814281  0.04818746  0.73879582     0.35400
C525        C  0.18885281  0.93818075  0.83369265     0.21000
C526        C  0.23746941  0.91232145  0.85082052    -0.38900
C527        C  0.28570988  0.94356641  0.83392900     0.20000
C528        C  0.28517185  0.99646614  0.80668625     0.22600
C529        C  0.23703879  0.02233941  0.78953724    -0.39400
C530        C  0.18913684  0.99074888  0.80191872     0.21400
N531        N  0.13752841  0.91754116  0.84170484    -0.32600
C532        C  0.10548295  0.95688943  0.81213674    -0.10200
C533        C  0.13627080  0.00284266  0.78614389    -0.29000
N534        N  0.33541434  0.01607788  0.78965521    -0.45600
C535        C  0.36945694  0.97400255  0.79411495    -0.04900
C536        C  0.33929618  0.92963842  0.82991564    -0.22200
H537        H  0.23774615  0.87056028  0.87230580     0.19600
H538        H  0.23702690  0.06329476  0.76404761     0.18400
H539        H  0.12174750  0.04037532  0.76045746     0.14600
H540        H  0.35250503  0.89022835  0.84167932     0.14500
H541        H  0.12506697  0.87901871  0.86462755     0.32700
H542        H  0.34383746  0.05728431  0.77924961     0.35400
C543        C  0.46932402  0.68719905  0.63749892     0.21000
C544        C  0.49809325  0.73794326  0.62220838    -0.38900
C545        C  0.46992247  0.78599335  0.64037699     0.20000
C546        C  0.41849482  0.78341688  0.67274181     0.22600
C547        C  0.39036571  0.73322070  0.69148868    -0.39400
C548        C  0.41743480  0.68536846  0.67167440     0.21400
N549        N  0.48629144  0.63586595  0.62571601    -0.32600
C550        C  0.44538313  0.60068628  0.65439213    -0.10200
C551        C  0.40169296  0.63077386  0.68295670    -0.29000
N552        N  0.40254407  0.83385398  0.69115597    -0.45600
C553        C  0.43970544  0.87282974  0.66082392    -0.04900
C554        C  0.48506938  0.84161610  0.63898537    -0.22200
H555        H  0.53932326  0.73991988  0.59766944     0.19600
H556        H  0.35010351  0.73158415  0.72017914     0.18400
H557        H  0.36336126  0.61476908  0.70914321     0.14600
H558        H  0.52656587  0.85537601  0.64069404     0.14500
H559        H  0.52388034  0.62533476  0.60076698     0.32700
H560        H  0.37620816  0.83804541  0.74369255     0.35400
C561        C  0.78328237  0.49556221  0.89131803     0.21000
C562        C  0.74242415  0.53392101  0.88019498    -0.38900
C563        C  0.68764025  0.51368348  0.89318437     0.20000
C564        C  0.67611163  0.46058921  0.91859398     0.22600
C565        C  0.71536698  0.42418229  0.42912762    -0.39400
C566        C  0.76856969  0.44320204  0.91247796     0.21400
N567        N  0.83819936  0.50342980  0.90118790    -0.32600
C568        C  0.85891915  0.45485165  0.92487756    -0.10200
C569        C  0.81295552  0.41973889  0.43876642    -0.29000
N570        N  0.62333625  0.45008183  0.93318493    -0.45600
C571        C  0.59867614  0.49586593  0.91409708    -0.04900
C572        C  0.63726275  0.53704845  0.88847214    -0.22200
H573        H  0.75239554  0.57613227  0.86574330     0.19600
H574        H  0.70605674  0.38334445  0.45255885     0.18400
H575        H  0.80720244  0.38640073  0.48408676     0.14600
H576        H  0.62945350  0.57803524  0.86874504     0.14500
H577        H  0.85850571  0.54126813  0.90728666     0.32700
H578        H  0.60422174  0.41302149  0.45103685     0.35400
C579        C  0.46459840  0.24017166  0.88718909     0.21000
C580        C  0.49859365  0.19639647  0.88181143    -0.38900
C581        C  0.47398691  0.14401730  0.89267182     0.20000
C582        C  0.42004260  0.13405244  0.90557964     0.22600
C583        C  0.38490585  0.17842987  0.90940886    -0.39400
C584        C  0.40963675  0.23202503  0.90134994     0.21400
N585        N  0.47939972  0.29362428  0.88314729    -0.32600
C586        C  0.43411717  0.32148402  0.89714074    -0.10200
C587        C  0.38951910  0.28414206  0.90891608    -0.29000
N588        N  0.40868316  0.07919125  0.91325174    -0.45600
C589        C  0.45572895  0.05171898  0.90160657    -0.04900
C590        C  0.49636077  0.09468588  0.88815751    -0.22200
H591        H  0.54172802  0.20264034  0.87085641     0.19600
H592        H  0.34190008  0.17193581  0.92094893     0.18400
H593        H  0.34807685  0.29380183  0.92235321     0.14600
H594        H  0.53690849  0.09483012  0.86258674     0.14500
H595        H  0.51859354  0.31036901  0.87361570     0.32700
H596        H  0.36985453  0.06274568  0.92359216     0.35400
C597        C  0.40328600  0.81606815  0.93543103     0.21000
C598        C  0.37349841  0.76780354  0.95039482    -0.38900
C599        C  0.39981309  0.72185013  0.92451836     0.20000
C600        C  0.45053805  0.72439374  0.88398384     0.22600
C601        C  0.47810469  0.77250474  0.86432631    -0.39400
C602        C  0.45217164  0.81779180  0.89225870     0.21400
N603        N  0.39543430  0.86332351  0.97522815    -0.32600
C604        C  0.44188880  0.89443679  0.96399314    -0.10200
C605        C  0.47462776  0.86730204  0.90411023    -0.29000
N606        N  0.46975637  0.67572654  0.87438606    -0.45600
C607        C  0.43079462  0.64294745  0.90964349    -0.04900
C608        C  0.38640534  0.66899091  0.94104251    -0.22200
H609        H  0.33616189  0.76584771  0.98849883     0.19600
H610        H  0.51880102  0.77438417  0.83713708     0.18400
H611        H  0.51473473  0.87589527  0.88240805     0.14600
H612        H  0.35025986  0.65160674  0.97289302     0.14500
H613        H  0.35866092  0.87103557  0.00237253     0.32700
H614        H  0.50676656  0.66540754  0.84675345     0.35400
C615        C  0.19419962  0.45398936  0.91045896     0.21000
C616        C  0.14775026  0.42371487  0.93680656    -0.38900
C617        C  0.09893315  0.44704602  0.91709526     0.20000
C618        C  0.09627243  0.49542443  0.87446967     0.22600
C619        C  0.14253655  0.52750174  0.85185315    -0.39400
C620        C  0.19182488  0.50446292  0.87086275     0.21400
N621        N  0.24548129  0.44012627  0.91942316    -0.32600
C622        C  0.27584955  0.48222636  0.88599471    -0.10200
C623        C  0.24421742  0.52327610  0.85503924    -0.29000
N624        N  0.04517325  0.50381219  0.85258032    -0.45600
C625        C  0.01407019  0.45852174  0.87204635    -0.04900
C626        C  0.04717971  0.42631220  0.92477713    -0.22200
H627        H  0.14944699  0.38437647  0.96805510     0.19600
H628        H  0.14027931  0.56576090  0.81729097     0.18400
H629        H  0.25777266  0.56174039  0.82626916     0.14600
H630        H  0.03914154  0.38799545  0.95552113     0.14500
H631        H  0.25914268  0.40495976  0.94866710     0.32700
H632        H  0.03322607  0.54262982  0.84403243     0.35400
C633        C  0.96028722  0.72311966  0.51335007     0.21000
C634        C  0.98457415  0.67448250  0.48535711    -0.38900
C635        C  0.95671364  0.62519219  0.51055316     0.20000
C636        C  0.91095994  0.62653355  0.56146793     0.22600
C637        C  0.88626689  0.67373829  0.58694696    -0.39400
C638        C  0.91255772  0.72173026  0.56152813     0.21400
N639        N  0.97800214  0.77435943  0.00066101    -0.32600
C640        C  0.94125675  0.80596734  0.54513652    -0.10200
C641        C  0.90002330  0.77371940  0.58266102    -0.29000
N642        N  0.89736480  0.57806958  0.59273416    -0.45600
C643        C  0.92929305  0.54004299  0.55596749    -0.04900
C644        C  0.96831078  0.56995804  0.50425834    -0.22200
H645        H  0.02223922  0.67393000  0.94750060     0.19600
H646        H  0.85029851  0.67296023  0.62854931     0.18400
H647        H  0.86563324  0.78658347  0.62093642     0.14600
H648        H  0.00329684  0.55480505  0.47395663     0.14500
H649        H  0.01293892  0.78825402  0.96681399     0.32700
H650        H  0.86834414  0.57536819  0.64294071     0.35400
C651        C  0.69985700  0.98668310  0.58498589     0.21000
C652        C  0.65109250  0.01313908  0.60270389    -0.38900
C653        C  0.60231875  0.98255218  0.58341141     0.20000
C654        C  0.60318317  0.92949902  0.04901384     0.22600
C655        C  0.65095412  0.90352640  0.03085356    -0.39400
C656        C  0.69889290  0.93330911  0.04891869     0.21400
N657        N  0.75175107  0.00575740  0.59518312    -0.32600
C658        C  0.78309750  0.96441910  0.06296842    -0.10200
C659        C  0.75134807  0.91994182  0.03337788    -0.29000
N660        N  0.55394256  0.91112673  0.02484872    -0.45600
C661        C  0.51831547  0.95082713  0.03971200    -0.04900
C662        C  0.54808783  0.99606375  0.57906027    -0.22200
H663        H  0.65114958  0.05450258  0.62712686     0.19600
H664        H  0.65067142  0.86367801  0.00009450     0.18400
H665        H  0.76492352  0.88259736  0.00461706     0.14600
H666        H  0.53521086  0.03669510  0.58105858     0.14500
H667        H  0.76504166  0.04371498  0.62045383     0.32700
H668        H  0.54830391  0.87101367  0.00455836     0.35400
C669        C  0.18279528  0.93550439  0.58565813     0.21000
C670        C  0.22187112  0.90388166  0.62215117    -0.38900
C671        C  0.27518867  0.92163319  0.60594065     0.20000
C672        C  0.28971311  0.96544421  0.55462742     0.22600
C673        C  0.25010824  0.99853259  0.51851785    -0.39400
C674        C  0.19557225  0.98154796  0.53608255     0.21400
N675        N  0.12952474  0.92734951  0.59546715    -0.32600
C676        C  0.10684675  0.96750025  0.55025761    -0.10200
C677        C  0.14655745  0.00296115  0.51265724    -0.29000
N678        N  0.34423745  0.97283778  0.55373518    -0.45600
C679        C  0.36518521  0.93790465  0.61372871    -0.04900
C680        C  0.32076996  0.90363169  0.64272745    -0.22200
H681        H  0.21143593  0.86912562  0.66382588     0.19600
H682        H  0.26084108  0.03499422  0.48141540     0.18400
H683        H  0.14073427  0.03879500  0.97520136     0.14600
H684        H  0.31551844  0.87067116  0.68733454     0.14500
H685        H  0.10960404  0.89590724  0.63098807     0.32700
H686        H  0.36613916  0.00146611  0.51695189     0.35400
C687        C  0.94996661  0.31066755  0.54965996     0.21000
C688        C  0.98373517  0.27113632  0.58413913    -0.38900
C689        C  0.96410456  0.21671513  0.57198081     0.20000
C690        C  0.91564936  0.20364882  0.02866713     0.22600
C691        C  0.88387287  0.24251806  0.99376665    -0.39400
C692        C  0.90385626  0.29518684  0.00467911     0.21400
N693        N  0.95952977  0.36464055  0.54157847    -0.32600
C694        C  0.92153959  0.38362002  0.98685445    -0.10200
C695        C  0.88674621  0.33912388  0.96351781    -0.29000
N696        N  0.90580529  0.15069249  0.01971448    -0.45600
C697        C  0.94779867  0.12762832  0.05835935    -0.04900
C698        C  0.98580911  0.16738658  0.59156353    -0.22200
H699        H  0.02258109  0.28158397  0.61459421     0.19600
H700        H  0.84747226  0.23221634  0.95575654     0.18400
H701        H  0.85498685  0.33443670  0.91464720     0.14600
H702        H  0.02418566  0.16055567  0.62330224     0.14500
H703        H  0.99199674  0.38645340  0.56695397     0.32700
H704        H  0.87257443  0.13128808  0.98760784     0.35400
loop_ 
_geom_bond_atom_site_label_1 
_geom_bond_atom_site_label_2 
_geom_bond_distance 
_geom_bond_site_symmetry_2 
_ccdc_geom_bond_type 
O1            V9   1.920   1_455  S
O1           C11   1.251       .  A
O2            V9   1.962       .  S
O2          C364   1.251       .  A
O3            V9   1.951       .  S
O3           C13   1.257       .  A
O4            V9   1.944   1_545  S
O4          C366   1.255       .  A
O5           V10   1.918   1_545  S
O5           C14   1.256       .  A
O6           V10   1.938       .  S
O6          C365   1.243       .  A
O7           V10   1.952       .  S
O7           C12   1.255       .  A
O8           V10   1.960   1_455  S
O8          C363   1.257       .  A
V9          V362   1.871   1_554  T
V10         V361   1.873       .  T
C11         O360   1.257   1_554  A
C11         C324   1.464       .  S
C12         O354   1.251       .  A
C12         C306   1.479       .  S
C13         O358   1.243   1_554  A
C13         C288   1.475       .  S
C14         O356   1.254       .  A
C14         C345   1.447       .  S
O15          V23   1.922       .  S
O15          C25   1.254       .  A
O16          V23   1.925       .  S
O16          C26   1.247       .  A
O17          V23   1.962       .  S
O17          C27   1.247       .  A
O18          V23   1.888       .  S
O18          C28   1.238       .  A
O19          V24   1.890       .  S
O19          C28   1.240       .  A
O20          V24   1.965       .  S
O20          C27   1.246       .  A
O21          V24   1.954       .  S
O21          C26   1.262       .  A
O22          V24   1.919       .  S
O22          C25   1.248       .  A
V23          V24   1.922       .  T
C25         C270   1.448       .  S
C26         C219   1.479       .  S
C27         C234   1.521       .  S
C28         C255   1.387       .  S
C29          C30   2.030       .  S
C29         C383   2.064       .  S
C29         C201   1.669       .  S
C29         C327   1.594       .  S
C30          C32   2.021       .  S
C30         C165   1.539   1_565  S
C30         C183   1.590       .  S
C31          C32   2.064       .  S
C31         C381   2.064       .  S
C31         C252   1.546       .  S
C31         C309   1.587       .  S
C32         C144   1.588       .  S
C32         C237   1.666   1_565  S
O33          V41   1.914       .  S
O33          C43   1.249       .  A
O34          V41   1.959   1_455  S
O34          C44   1.253       .  A
O35          V41   1.947   1_545  S
O35          C45   1.254       .  A
O36          V41   1.947       .  S
O36          C46   1.255       .  A
O37          V42   1.928       .  S
O37          C46   1.257       .  A
O38          V42   1.940   1_545  S
O38          C45   1.245       .  A
O39          V42   1.945   1_455  S
O39          C44   1.253       .  A
O40          V42   1.958       .  S
O40          C43   1.258       .  A
V41          V42   1.873       .  T
C43         C147   1.463       .  S
C44         C180   1.476       .  S
C45         C108   1.469       .  S
C46         C126   1.456       .  S
O47          V55   1.922       .  S
O47          C57   1.252       .  A
O48          V55   1.949       .  S
O48          C58   1.257       .  A
O49          V55   1.969       .  S
O49          C59   1.246       .  A
O50          V55   1.901       .  S
O50          C60   1.243       .  A
O51          V56   1.905       .  S
O51          C60   1.242       .  A
O52          V56   1.969       .  S
O52          C59   1.249       .  A
O53          V56   1.923       .  S
O53          C58   1.249       .  A
O54          V56   1.917       .  S
O54          C57   1.255       .  A
V55          V56   1.920       .  T
C57          C90   1.447       .  S
C58          C75   1.483       .  S
C59         C198   1.531       .  S
C60         C162   1.407       .  S
C61          C62   2.016       .  S
C61          C63   2.063       .  S
C61         C111   1.611       .  S
C61         C273   1.595   1_655  S
C62         C416   2.003       .  S
C62         C216   1.610       .  S
C62         C342   1.584       .  S
C63          C64   2.031       .  S
C63          C72   1.602   1_655  S
C63         C129   1.555       .  S
C64         C414   2.002   1_554  S
C64          C93   1.572       .  S
C64         C291   1.611       .  S
C65          C70   1.365       .  A
C65          C66   1.411       .  A
C65          N71   1.348       .  A
C66          C67   1.413       .  A
C66          H77   1.082       .  S
C67          C76   1.386       .  A
C67          C68   1.384       .  A
C68          C69   1.404       .  A
C68          N74   1.347       .  A
C69          C70   1.404       .  A
C69          H78   1.082       .  S
C70          C73   1.369       .  A
N71          C72   1.368       .  A
N71          H81   1.033       .  S
C72          C73   1.404       .  A
C73          H79   1.061       .  S
N74          C75   1.355       .  A
N74          H82   1.045       .  S
C75          C76   1.401       .  A
C76          H80   1.082       .  S
C83          C88   1.383       .  A
C83          C84   1.420       .  A
C83          N89   1.347       .  A
C84          C85   1.413       .  A
C84          H95   1.082       .  S
C85          C94   1.401       .  A
C85          C86   1.369       .  A
C86          C87   1.385       .  A
C86          N92   1.309       .  A
C87          C88   1.372       .  A
C87          H96   1.084       .  S
C88          C91   1.359       .  A
N89          C90   1.360       .  A
N89          H99   1.044       .  S
C90          C91   1.376       .  A
C91          H97   1.083       .  S
N92          C93   1.360       .  A
N92         H100   1.038       .  S
C93          C94   1.403       .  A
C94          H98   1.074       .  S
C101        C106   1.381       .  A
C101        C102   1.424       .  A
C101        N107   1.350       .  A
C102        C103   1.420       .  A
C102        H113   1.082       .  S
C103        C112   1.408       .  A
C103        C104   1.367       .  A
C104        C105   1.398   1_655  A
C104        N110   1.324       .  A
C105        C106   1.386   1_455  A
C105        H114   1.083       .  S
C106        C109   1.374       .  A
N107        C108   1.363       .  A
N107        H117   1.044       .  S
C108        C109   1.385       .  A
C109        H115   1.083   1_655  S
N110        C111   1.372       .  A
N110        H118   1.034   1_655  S
C111        C112   1.416       .  A
C112        H116   1.073       .  S
C119        C124   1.387       .  A
C119        C120   1.382   1_655  A
C119        N125   1.330       .  A
C120        C121   1.384   1_455  A
C120        H131   1.083       .  S
C121        C130   1.348       .  A
C121        C122   1.371       .  A
C122        C123   1.414       .  A
C122        N128   1.353       .  A
C123        C124   1.416       .  A
C123        H132   1.082       .  S
C124        C127   1.388       .  A
N125        C126   1.344       .  A
N125        H135   1.045   1_655  S
C126        C127   1.402       .  A
C127        H133   1.082       .  S
N128        C129   1.354       .  A
N128        H136   1.036       .  S
C129        C130   1.415       .  A
C130        H134   1.070   1_655  S
C137        C142   1.366       .  A
C137        C138   1.390   1_565  A
C137        N143   1.325   1_565  A
C138        C139   1.384   1_545  A
C138        H149   1.082       .  S
C139        C148   1.360       .  A
C139        C140   1.382       .  A
C140        C141   1.416       .  A
C140        N146   1.352       .  A
C141        C142   1.415       .  A
C141        H150   1.081       .  S
C142        C145   1.389       .  A
N143        C144   1.360   1_545  A
N143        H153   1.032       .  S
C144        C145   1.414       .  A
C145        H151   1.067       .  S
N146        C147   1.359       .  A
N146        H154   1.044       .  S
C147        C148   1.385       .  A
C148        H152   1.083   1_565  S
C155        C160   1.389       .  A
C155        C156   1.371       .  A
C155        N161   1.322       .  A
C156        C157   1.373       .  A
C156        H167   1.083       .  S
C157        C166   1.329       .  A
C157        C158   1.370       .  A
C158        C159   1.398       .  A
C158        N164   1.340       .  A
C159        C160   1.399       .  A
C159        H168   1.082       .  S
C160        C163   1.365       .  A
N161        C162   1.335       .  A
N161        H171   1.046       .  S
C162        C163   1.387       .  A
C163        H169   1.083       .  S
N164        C165   1.358       .  A
N164        H172   1.036       .  S
C165        C166   1.392       .  A
C166        H170   1.067       .  S
C173        C178   1.384       .  A
C173        C174   1.413       .  A
C173        N179   1.350       .  A
C174        C175   1.411       .  A
C174        H185   1.082       .  S
C175        C184   1.387       .  A
C175        C176   1.371       .  A
C176        C177   1.404   1_565  A
C176        N182   1.337   1_565  A
C177        C178   1.400   1_545  A
C177        H186   1.082       .  S
C178        C181   1.378   1_565  A
N179        C180   1.359       .  A
N179        H189   1.044       .  S
C180        C181   1.393   1_565  A
C181        H187   1.082       .  S
N182        C183   1.372   1_545  A
N182        H190   1.041       .  S
C183        C184   1.402       .  A
C184        H188   1.057       .  S
C191        C196   1.379       .  A
C191        C192   1.429       .  A
C191        N197   1.365       .  A
C192        C193   1.429       .  A
C192        H203   1.082       .  S
C193        C202   1.405       .  A
C193        C194   1.358       .  A
C194        C195   1.420       .  A
C194        N200   1.352       .  A
C195        C196   1.416       .  A
C195        H204   1.082       .  S
C196        C199   1.395       .  A
N197        C198   1.370       .  A
N197        H207   1.045       .  S
C198        C199   1.405       .  A
C199        H205   1.082       .  S
N200        C201   1.375       .  A
N200        H208   1.024       .  S
C201        C202   1.428       .  A
C202        H206   1.065       .  S
C209        C214   1.364       .  A
C209        C210   1.428       .  A
C209        N215   1.370       .  A
C210        C211   1.434       .  A
C210        H221   1.082       .  S
C211        C220   1.400       .  A
C211        C212   1.383       .  A
C212        C565   1.378       .  A
C212        N218   1.336       .  A
C213        C564   1.378       .  A
C213        C566   1.388       .  A
C213        H222   1.083       .  S
C214        C565   1.388       .  A
C214        C569   1.337       .  A
N215        C216   1.375       .  A
N215        H225   1.042       .  S
C216        C569   1.408       .  A
C217        C566   1.338       .  A
C217        C568   1.408       .  A
C217        H223   1.072       .  S
N218        C219   1.343       .  A
N218        H578   1.045       .  S
C219        C220   1.413       .  A
C220        H224   1.082       .  S
H226        N570   1.045       .  S
C227        C232   1.380       .  A
C227        C228   1.404       .  A
C227        N233   1.354       .  A
C228        C229   1.413       .  A
C228        H239   1.083       .  S
C229        C238   1.364       .  A
C229        C230   1.358       .  A
C230        C231   1.433       .  A
C230        N236   1.376       .  A
C231        C232   1.436       .  A
C231        H240   1.081       .  S
C232        C235   1.406       .  A
N233        C234   1.358       .  A
N233        H243   1.044       .  S
C234        C235   1.414       .  A
C235        H241   1.082       .  S
N236        C237   1.386       .  A
N236        H244   1.034       .  S
C237        C238   1.440       .  A
C238        H242   1.072       .  S
C245        C250   1.368       .  A
C245        C246   1.389       .  A
C245        N251   1.328       .  A
C246        C247   1.388       .  A
C246        H257   1.082       .  S
C247        C256   1.355       .  A
C247        C248   1.390       .  A
C248        C249   1.373       .  A
C248        N254   1.320       .  A
C249        C250   1.378       .  A
C249        H258   1.083       .  S
C250        C253   1.328       .  A
N251        C252   1.360       .  A
N251        H261   1.026       .  S
C252        C253   1.395       .  A
C253        H259   1.056       .  S
N254        C255   1.337       .  A
N254        H262   1.045       .  S
C255        C256   1.379       .  A
C256        H260   1.083       .  S
C263        C268   1.386       .  A
C263        C264   1.397       .  A
C263        N269   1.337       .  A
C264        C265   1.395       .  A
C264        H275   1.082       .  S
C265        C274   1.359       .  A
C265        C266   1.360       .  A
C266        C267   1.401       .  A
C266        N272   1.333       .  A
C267        C268   1.400       .  A
C267        H276   1.082       .  S
C268        C271   1.375       .  A
N269        C270   1.350       .  A
N269        H279   1.045       .  S
C270        C271   1.391       .  A
C271        H277   1.082       .  S
N272        C273   1.359       .  A
N272        H280   1.018       .  S
C273        C274   1.412       .  A
C274        H278   1.064       .  S
C281        C286   1.380       .  A
C281        C282   1.428   1_554  A
C281        N639   1.352       .  A
C282        C283   1.421   1_556  A
C282        H645   1.082   1_655  S
C283        C292   1.409       .  A
C283        C284   1.364       .  A
C284        C285   1.392       .  A
C284        N290   1.315       .  A
C285        C286   1.378       .  A
C285        H294   1.083       .  S
C286        C289   1.369       .  A
N287        C633   1.352       .  A
N287        C640   1.366       .  A
N287        H297   1.044   1_655  S
C288        C289   1.382       .  A
C288        N639   1.367       .  A
C289        H295   1.083       .  S
N290        C291   1.367       .  A
N290        H298   1.036       .  S
C291        C292   1.415       .  A
C292        H296   1.059   1_654  S
H293        C634   1.082   1_455  S
C299        C300   1.423   1_565  A
C299        C656   1.382       .  A
C299        N305   1.354   1_565  A
C300        C301   1.420   1_545  A
C300        H311   1.082       .  S
C301        C310   1.399       .  A
C301        C654   1.370       .  A
C302        C303   1.396       .  A
C302        C653   1.370       .  A
C302        N308   1.327       .  A
C303        C304   1.389       .  A
C303        H312   1.082       .  S
C304        C307   1.372       .  A
C304        C651   1.382       .  A
N305        C658   1.365   1_545  A
N305        H315   1.045       .  S
C306        C307   1.388       .  A
C306        N657   1.365   1_565  A
C307        H313   1.082       .  S
N308        C309   1.366       .  A
N308        H316   1.035       .  S
C309        C662   1.409       .  A
C310        C661   1.408       .  A
C310        H314   1.067   1_565  S
C317        C322   1.383       .  A
C317        C318   1.386       .  A
C317        N323   1.331       .  A
C318        C319   1.390       .  A
C318        H329   1.083       .  S
C319        C328   1.351       .  A
C319        C320   1.362       .  A
C320        C321   1.414       .  A
C320        N326   1.351       .  A
C321        C322   1.417       .  A
C321        H330   1.081   1_564  S
C322        C325   1.392   1_565  A
N323        C324   1.347       .  A
N323        H333   1.045       .  S
C324        C325   1.402   1_565  A
C325        H683   1.082   1_554  S
N326        C327   1.365       .  A
N326        H334   1.028   1_565  S
C327        C328   1.422       .  A
C328        H332   1.057       .  S
H331        C677   1.082       .  S
C335        C336   1.416       .  A
C335        C692   1.362       .  A
C335        N341   1.349       .  A
C336        C337   1.417       .  A
C336        H347   1.082   1_655  S
C337        C346   1.388       .  A
C337        C690   1.386       .  A
C338        C339   1.375       .  A
C338        C689   1.386       .  A
C338        N344   1.324       .  A
C339        C340   1.377       .  A
C339        H348   1.083       .  S
C340        C343   1.336       .  A
C340        C687   1.363       .  A
N341        C694   1.360   1_554  A
N341        H351   1.017       .  S
C342        C343   1.404       .  A
C342        N693   1.359       .  A
C343        H349   1.073       .  S
N344        C345   1.341       .  A
N344        H352   1.046       .  S
C345        C698   1.402       .  A
C346        C697   1.402       .  A
C346        H350   1.082   1_655  S
O353        V361   1.917   1_455  S
O353        C363   1.250       .  A
O354        V361   1.962       .  S
O355        V361   1.951       .  S
O355        C365   1.257       .  A
O356        V361   1.944   1_545  S
O357        V362   1.917   1_545  S
O357        C366   1.256   1_556  A
O358        V362   1.939       .  S
O359        V362   1.954   1_554  S
O359        C364   1.255       .  A
O360        V362   1.961   1_455  S
C363        C676   1.464       .  S
C364        C658   1.481       .  S
C365        C640   1.475       .  S
C366        C697   1.448       .  S
O367        V375   1.922       .  S
O367        C377   1.253       .  A
O368        V375   1.924       .  S
O368        C378   1.247       .  A
O369        V375   1.962       .  S
O369        C379   1.247       .  A
O370        V375   1.888       .  S
O370        C380   1.238       .  A
O371        V376   1.890       .  S
O371        C380   1.239       .  A
O372        V376   1.964       .  S
O372        C379   1.246       .  A
O373        V376   1.953       .  S
O373        C378   1.263       .  A
O374        V376   1.920       .  S
O374        C377   1.248       .  A
V375        V376   1.925       .  T
C377        C622   1.449       .  S
C378        C571   1.480       .  S
C379        C586   1.520       .  S
C380        C607   1.387       .  S
C381        C382   2.030       .  S
C381        C553   1.669       .  S
C381        C679   1.596       .  S
C382        C384   2.020       .  S
C382        C517   1.538   1_565  S
C382        C535   1.588       .  S
C383        C384   2.063   1_554  S
C383        C604   1.548   1_554  S
C383        C661   1.586       .  S
C384        C496   1.590       .  S
C384        C589   1.665   1_565  S
O385        V393   1.916       .  S
O385        C395   1.249       .  A
O386        V393   1.958   1_455  S
O386        C396   1.252       .  A
O387        V393   1.948   1_545  S
O387        C397   1.254       .  A
O388        V393   1.948       .  S
O388        C398   1.255       .  A
O389        V394   1.926       .  S
O389        C398   1.256       .  A
O390        V394   1.937   1_545  S
O390        C397   1.244       .  A
O391        V394   1.944   1_455  S
O391        C396   1.253       .  A
O392        V394   1.959       .  S
O392        C395   1.258       .  A
V393        V394   1.872       .  T
C395        C499   1.463       .  S
C396        C532   1.474       .  S
C397        C460   1.468       .  S
C398        C478   1.455       .  S
O399        V407   1.922       .  S
O399        C409   1.252       .  A
O400        V407   1.948       .  S
O400        C410   1.256       .  A
O401        V407   1.969       .  S
O401        C411   1.246       .  A
O402        V407   1.902       .  S
O402        C412   1.243       .  A
O403        V408   1.906       .  S
O403        C412   1.243       .  A
O404        V408   1.969       .  S
O404        C411   1.249       .  A
O405        V408   1.925       .  S
O405        C410   1.249       .  A
O406        V408   1.918       .  S
O406        C409   1.256       .  A
V407        V408   1.920       .  T
C409        C442   1.447       .  S
C410        C427   1.482       .  S
C411        C550   1.531       .  S
C412        C514   1.409       .  S
C413        C414   2.015       .  S
C413        C415   2.064       .  S
C413        C463   1.611       .  S
C413        C625   1.595   1_655  S
C414        C568   1.610       .  S
C414        C694   1.586       .  S
C415        C416   2.031       .  S
C415        C424   1.601   1_655  S
C415        C481   1.555       .  S
C416        C445   1.573       .  S
C416        C643   1.613       .  S
C417        C422   1.365       .  A
C417        C418   1.411       .  A
C417        N423   1.348       .  A
C418        C419   1.413       .  A
C418        H429   1.082       .  S
C419        C428   1.385       .  A
C419        C420   1.384       .  A
C420        C421   1.403       .  A
C420        N426   1.346       .  A
C421        C422   1.403       .  A
C421        H430   1.082       .  S
C422        C425   1.367       .  A
N423        C424   1.368       .  A
N423        H433   1.033       .  S
C424        C425   1.404       .  A
C425        H431   1.061       .  S
N426        C427   1.355       .  A
N426        H434   1.044       .  S
C427        C428   1.401       .  A
C428        H432   1.082       .  S
C435        C440   1.383       .  A
C435        C436   1.419       .  A
C435        N441   1.346       .  A
C436        C437   1.413       .  A
C436        H447   1.082       .  S
C437        C446   1.401       .  A
C437        C438   1.369       .  A
C438        C439   1.386       .  A
C438        N444   1.310       .  A
C439        C440   1.373       .  A
C439        H448   1.084       .  S
C440        C443   1.360       .  A
N441        C442   1.360       .  A
N441        H451   1.044       .  S
C442        C443   1.376       .  A
C443        H449   1.083       .  S
N444        C445   1.361       .  A
N444        H452   1.039       .  S
C445        C446   1.402       .  A
C446        H450   1.073       .  S
C453        C458   1.381       .  A
C453        C454   1.423       .  A
C453        N459   1.349       .  A
C454        C455   1.419       .  A
C454        H465   1.082       .  S
C455        C464   1.407       .  A
C455        C456   1.367       .  A
C456        C457   1.399   1_655  A
C456        N462   1.324       .  A
C457        C458   1.386   1_455  A
C457        H466   1.083       .  S
C458        C461   1.375       .  A
N459        C460   1.362       .  A
N459        H469   1.044       .  S
C460        C461   1.386       .  A
C461        H467   1.083   1_655  S
N462        C463   1.373       .  A
N462        H470   1.035   1_655  S
C463        C464   1.416       .  A
C464        H468   1.072       .  S
C471        C476   1.386       .  A
C471        C472   1.383   1_655  A
C471        N477   1.330       .  A
C472        C473   1.385   1_455  A
C472        H483   1.083       .  S
C473        C482   1.349       .  A
C473        C474   1.371       .  A
C474        C475   1.414       .  A
C474        N480   1.353       .  A
C475        C476   1.416       .  A
C475        H484   1.082       .  S
C476        C479   1.388       .  A
N477        C478   1.344       .  A
N477        H487   1.045   1_655  S
C478        C479   1.402       .  A
C479        H485   1.082       .  S
N480        C481   1.354       .  A
N480        H488   1.036       .  S
C481        C482   1.415       .  A
C482        H486   1.070   1_655  S
C489        C494   1.366       .  A
C489        C490   1.390   1_565  A
C489        N495   1.325   1_565  A
C490        C491   1.385   1_545  A
C490        H501   1.082       .  S
C491        C500   1.360       .  A
C491        C492   1.382       .  A
C492        C493   1.416       .  A
C492        N498   1.352       .  A
C493        C494   1.414       .  A
C493        H502   1.081       .  S
C494        C497   1.389       .  A
N495        C496   1.361   1_545  A
N495        H505   1.033       .  S
C496        C497   1.414       .  A
C497        H503   1.067       .  S
N498        C499   1.359       .  A
N498        H506   1.044       .  S
C499        C500   1.386       .  A
C500        H504   1.083   1_565  S
C507        C512   1.389       .  A
C507        C508   1.372       .  A
C507        N513   1.323       .  A
C508        C509   1.373       .  A
C508        H519   1.083       .  S
C509        C518   1.329       .  A
C509        C510   1.370       .  A
C510        C511   1.398       .  A
C510        N516   1.340       .  A
C511        C512   1.399       .  A
C511        H520   1.082       .  S
C512        C515   1.365       .  A
N513        C514   1.335       .  A
N513        H523   1.046       .  S
C514        C515   1.387       .  A
C515        H521   1.083       .  S
N516        C517   1.358       .  A
N516        H524   1.038       .  S
C517        C518   1.393       .  A
C518        H522   1.068       .  S
C525        C530   1.384       .  A
C525        C526   1.413       .  A
C525        N531   1.350       .  A
C526        C527   1.412       .  A
C526        H537   1.082       .  S
C527        C536   1.386       .  A
C527        C528   1.371       .  A
C528        C529   1.403   1_565  A
C528        N534   1.336   1_565  A
C529        C530   1.399   1_545  A
C529        H538   1.082       .  S
C530        C533   1.376   1_565  A
N531        C532   1.359       .  A
N531        H541   1.045       .  S
C532        C533   1.392   1_565  A
C533        H539   1.082       .  S
N534        C535   1.371   1_545  A
N534        H542   1.041       .  S
C535        C536   1.402       .  A
C536        H540   1.057       .  S
C543        C548   1.379       .  A
C543        C544   1.429       .  A
C543        N549   1.365       .  A
C544        C545   1.429       .  A
C544        H555   1.082       .  S
C545        C554   1.406       .  A
C545        C546   1.358       .  A
C546        C547   1.420       .  A
C546        N552   1.351       .  A
C547        C548   1.416       .  A
C547        H556   1.082       .  S
C548        C551   1.396       .  A
N549        C550   1.370       .  A
N549        H559   1.045       .  S
C550        C551   1.405       .  A
C551        H557   1.082       .  S
N552        C553   1.376       .  A
N552        H560   1.026       .  S
C553        C554   1.428       .  A
C554        H558   1.065       .  S
C561        C566   1.364       .  A
C561        C562   1.429       .  A
C561        N567   1.370       .  A
C562        C563   1.434       .  A
C562        H573   1.082       .  S
C563        C572   1.400       .  A
C563        C564   1.383       .  A
C564        N570   1.336       .  A
C565        H574   1.083       .  S
N567        C568   1.375       .  A
N567        H577   1.042       .  S
C569        H575   1.072       .  S
N570        C571   1.343       .  A
C571        C572   1.414       .  A
C572        H576   1.082       .  S
C579        C584   1.380       .  A
C579        C580   1.403       .  A
C579        N585   1.354       .  A
C580        C581   1.412       .  A
C580        H591   1.083       .  S
C581        C590   1.363       .  A
C581        C582   1.358       .  A
C582        C583   1.432       .  A
C582        N588   1.375       .  A
C583        C584   1.436       .  A
C583        H592   1.081       .  S
C584        C587   1.406       .  A
N585        C586   1.358       .  A
N585        H595   1.045       .  S
C586        C587   1.414       .  A
C587        H593   1.082       .  S
N588        C589   1.385       .  A
N588        H596   1.036       .  S
C589        C590   1.440       .  A
C590        H594   1.072       .  S
C597        C602   1.368       .  A
C597        C598   1.389       .  A
C597        N603   1.328       .  A
C598        C599   1.388       .  A
C598        H609   1.082       .  S
C599        C608   1.355       .  A
C599        C600   1.390       .  A
C600        C601   1.373       .  A
C600        N606   1.321       .  A
C601        C602   1.378       .  A
C601        H610   1.083       .  S
C602        C605   1.328       .  A
N603        C604   1.361       .  A
N603        H613   1.021   1_556  S
C604        C605   1.394       .  A
C605        H611   1.055       .  S
N606        C607   1.337       .  A
N606        H614   1.045       .  S
C607        C608   1.379       .  A
C608        H612   1.083       .  S
C615        C620   1.386       .  A
C615        C616   1.397       .  A
C615        N621   1.337       .  A
C616        C617   1.395       .  A
C616        H627   1.082       .  S
C617        C626   1.360       .  A
C617        C618   1.361       .  A
C618        C619   1.401       .  A
C618        N624   1.332       .  A
C619        C620   1.400       .  A
C619        H628   1.083       .  S
C620        C623   1.375       .  A
N621        C622   1.350       .  A
N621        H631   1.045       .  S
C622        C623   1.392       .  A
C623        H629   1.082       .  S
N624        C625   1.358       .  A
N624        H632   1.025       .  S
C625        C626   1.412       .  A
C626        H630   1.063       .  S
C633        C638   1.380       .  A
C633        C634   1.428       .  A
C634        C635   1.421       .  A
C635        C644   1.410       .  A
C635        C636   1.363       .  A
C636        C637   1.392       .  A
C636        N642   1.315       .  A
C637        C638   1.378       .  A
C637        H646   1.083       .  S
C638        C641   1.370       .  A
N639        H649   1.044   1_654  S
C640        C641   1.382       .  A
C641        H647   1.083       .  S
N642        C643   1.368       .  A
N642        H650   1.036       .  S
C643        C644   1.416       .  A
C644        H648   1.059   1_655  S
C651        C652   1.423   1_565  A
C651        N657   1.354   1_565  A
C652        C653   1.420   1_545  A
C652        H663   1.082       .  S
C653        C662   1.399       .  A
C654        C655   1.397       .  A
C654        N660   1.328       .  A
C655        C656   1.390       .  A
C655        H664   1.082       .  S
C656        C659   1.373       .  A
N657        H667   1.046       .  S
C658        C659   1.388       .  A
C659        H665   1.082       .  S
N660        C661   1.367       .  A
N660        H668   1.037       .  S
C662        H666   1.068   1_565  S
C669        C674   1.383       .  A
C669        C670   1.386       .  A
C669        N675   1.331       .  A
C670        C671   1.390       .  A
C670        H681   1.083       .  S
C671        C680   1.350       .  A
C671        C672   1.362       .  A
C672        C673   1.415       .  A
C672        N678   1.352       .  A
C673        C674   1.417       .  A
C673        H682   1.081   1_565  S
C674        C677   1.392   1_565  A
N675        C676   1.347       .  A
N675        H685   1.045       .  S
C676        C677   1.402   1_565  A
N678        C679   1.366       .  A
N678        H686   1.029   1_565  S
C679        C680   1.422       .  A
C680        H684   1.057       .  S
C687        C688   1.415       .  A
C687        N693   1.348       .  A
C688        C689   1.417       .  A
C688        H699   1.082   1_655  S
C689        C698   1.388       .  A
C690        C691   1.375   1_554  A
C690        N696   1.324       .  A
C691        C692   1.377   1_556  A
C691        H700   1.083       .  S
C692        C695   1.336   1_554  A
N693        H703   1.017       .  S
C694        C695   1.404       .  A
C695        H701   1.073       .  S
N696        C697   1.341       .  A
N696        H704   1.046   1_554  S
C698        H702   1.082   1_655  S
