geometry optimzed in LAMMPS
_audit_creation_date              2020-11-30 
_audit_creation_method            'lammps2cif' 
_symmetry_space_group_name_H-M    'P1' 
_symmetry_Int_Tables_number       1 
_symmetry_cell_setting            triclinic 
loop_ 
_symmetry_equiv_pos_as_xyz 
  x,y,z 
_cell_length_a                    55.30527492356737 
_cell_length_b                    55.38541437482852 
_cell_length_c                    26.668838073839844 
_cell_angle_alpha                 89.90406183683548 
_cell_angle_beta                  91.16989988730998 
_cell_angle_gamma                 121.29570643090167 
loop_ 
_atom_site_label 
_atom_site_type_symbol 
_atom_site_fract_x 
_atom_site_fract_y 
_atom_site_fract_z 
_atom_site_charge 
O1          O  0.34192400  0.12830732  0.58406136    -0.86840
O2          O  0.28446387  0.11602632  0.84432806    -0.87000
O3          O  0.32806862  0.08475303  0.74527329    -0.88670
O4          O  0.26137349  0.08708526  0.67188448    -0.87430
O5          O  0.25016616  0.12101057  0.65583920    -0.87020
O6          O  0.37319254  0.11734388  0.77162378    -0.88390
O7          O  0.27555946  0.08456410  0.78068089    -0.86870
O8          O  0.31602370  0.09099895  0.63644154    -0.86450
Zr9        Zr  0.30718253  0.11026680  0.71228337     2.84310
O10         O  0.29034122  0.13704676  0.74855424    -1.08430
O11         O  0.35338584  0.14000676  0.68577408    -1.09160
C12         C  0.32982620  0.10205866  0.59582384     1.06270
C13         C  0.27089647  0.09113092  0.82444058     1.06210
C14         C  0.35182399  0.09161536  0.76686090     1.09200
C15         C  0.24552946  0.09544914  0.65267841     1.06980
H16         H  0.33401825  0.12230190  0.80783334     0.32530
O17         O  0.33511050  0.13519507  0.78235938    -1.29380
H18         H  0.29655203  0.13069894  0.62355897     0.32210
O19         O  0.30738508  0.14120478  0.65289366    -1.31060
O20         O  0.33849903  0.20664457  0.86419386    -0.86830
O21         O  0.38547728  0.21763891  0.59342117    -0.88330
O22         O  0.38778208  0.16001890  0.84327731    -0.86910
O23         O  0.25763290  0.16542234  0.75242860    -0.86960
O24         O  0.28371302  0.17001245  0.60061108    -0.86670
O25         O  0.41573905  0.17135587  0.69587752    -0.86470
O26         O  0.41244874  0.24635713  0.76245988    -0.86840
O27         O  0.34467699  0.24877775  0.69134498    -0.86310
O28         O  0.41684605  0.21047481  0.79533229    -0.87370
O29         O  0.30020475  0.21525220  0.66220791    -0.86530
O30         O  0.34989837  0.15699226  0.88327446    -0.86930
O31         O  0.39923317  0.17564211  0.61892788    -0.86650
O32         O  0.32079900  0.17143555  0.56020316    -0.86300
O33         O  0.27547575  0.16283193  0.82955150    -0.86710
O34         O  0.36328017  0.24303886  0.80991209    -0.87000
O35         O  0.39553689  0.24936342  0.65709931    -0.88340
Zr36       Zr  0.31943445  0.16282028  0.81782727     2.83100
Zr37       Zr  0.35327411  0.17138055  0.62638787     2.83500
Zr38       Zr  0.38126788  0.16512398  0.75591102     2.84090
Zr39       Zr  0.28974253  0.16757253  0.68863192     2.83360
Zr40       Zr  0.36518302  0.22354354  0.72864298     2.84220
O41         O  0.33585744  0.19759962  0.66133645    -1.08910
O42         O  0.36475821  0.19259871  0.78901970    -1.08410
C43         C  0.35347041  0.23313830  0.85375524     1.06240
C44         C  0.39921213  0.24278413  0.61234816     1.08860
C45         C  0.37364436  0.15712252  0.88272019     1.06420
C46         C  0.25668882  0.16362851  0.80086023     1.06780
C47         C  0.29699869  0.17089346  0.56113821     1.06360
C48         C  0.41793241  0.17516168  0.64822175     1.05910
C49         C  0.42366799  0.23661176  0.79241493     1.06340
C50         C  0.32184300  0.24097354  0.66547995     1.05850
H51         H  0.40166791  0.20922043  0.68624547     0.32530
O52         O  0.38231679  0.19657072  0.69567242    -1.30010
H53         H  0.31224769  0.20547295  0.77142962     0.32550
O54         O  0.31897881  0.19403193  0.75733353    -1.31400
C55         C  0.47912080  0.48319401  0.46425897     0.01940
C56         C  0.50285594  0.48021300  0.46381513     0.01940
C57         C  0.03076082  0.00387602  0.46307908     0.01940
C58         C  0.03526888  0.03167796  0.46413669     0.01940
C59         C  0.01089092  0.03469958  0.46518047     0.01940
C60         C  0.48292572  0.01032592  0.46205218     0.01940
C61         C  0.00711399  0.17063575  0.55311723     0.02780
C62         C  0.00669425  0.14514231  0.55118073    -0.13370
C63         C  0.02441362  0.14227530  0.51806535     0.00280
C64         C  0.04252742  0.16504640  0.48761575    -0.11890
C65         C  0.04258849  0.19027834  0.48993673     0.02770
C66         C  0.02572449  0.19339190  0.52391382    -0.11310
H67         H  0.99109276  0.12704313  0.57194872     0.08370
H68         H  0.05520088  0.16251937  0.46001503     0.05900
H69         H  0.02528953  0.21275701  0.52455067     0.05740
C70         C  0.15033718  0.45868850  0.47590075     0.02780
C71         C  0.17090349  0.98006173  0.50833962    -0.13370
C72         C  0.16653526  0.00113022  0.52823047     0.00280
C73         C  0.14169164  0.00064556  0.51589195    -0.11890
C74         C  0.12092334  0.97983663  0.48431649     0.02770
C75         C  0.12517808  0.45877710  0.46420102    -0.11310
H76         H  0.19048952  0.98075685  0.51684784     0.08370
H77         H  0.13850129  0.01694174  0.53098239     0.05900
H78         H  0.10935048  0.44291760  0.43889345     0.05740
C79         C  0.35181644  0.03759388  0.45331775     0.02780
C80         C  0.37683683  0.03696991  0.46018227    -0.13370
C81         C  0.38250884  0.01957022  0.43059586     0.00280
C82         C  0.36333046  0.00468538  0.39033819    -0.11890
C83         C  0.33942624  0.00702762  0.38019312     0.02770
C84         C  0.33372862  0.02323298  0.41240726    -0.11310
H85         H  0.39167736  0.04999809  0.48920286     0.08370
H86         H  0.36615790  0.49030027  0.36740011     0.05900
H87         H  0.31473883  0.02403626  0.40626825     0.05740
C88         C  0.02229916  0.35096810  0.42425756     0.02780
C89         C  0.50477250  0.32825225  0.45640257    -0.13370
C90         C  0.48249902  0.32795161  0.48181283     0.00280
C91         C  0.47820792  0.35045928  0.47642340    -0.11890
C92         C  0.49644623  0.37388524  0.44796821     0.02770
C93         C  0.01806502  0.37382992  0.42178009    -0.11310
H94         H  0.50838670  0.31105822  0.46239841     0.08370
H95         H  0.46088261  0.34995580  0.49572578     0.05900
H96         H  0.03183624  0.39200032  0.39964778     0.05740
C97         C  0.20541942  0.15061168  0.43379086     0.02780
C98         C  0.17889481  0.12743796  0.44805350    -0.13370
C99         C  0.15327724  0.12165004  0.42337600     0.00280
C100        C  0.15641074  0.13987008  0.38334083    -0.11890
C101        C  0.18142688  0.16571334  0.37687230     0.02770
C102        C  0.20614900  0.17044259  0.40044158    -0.11310
H103        H  0.17921262  0.11531408  0.47921544     0.08370
H104        H  0.13928366  0.13596033  0.35820900     0.05900
H105        H  0.22582182  0.19019823  0.39464012     0.05740
C106        C  0.33976073  0.33504743  0.54188836     0.02780
C107        C  0.36682469  0.35994746  0.53957757    -0.13370
C108        C  0.37179310  0.38123311  0.50476917     0.00280
C109        C  0.34989242  0.37714595  0.47212874    -0.11890
C110        C  0.32356630  0.35229630  0.47273680     0.02770
C111        C  0.31826592  0.33134962  0.50791121    -0.11310
H112        H  0.38392893  0.36248919  0.56393805     0.08370
H113        H  0.35358209  0.39325781  0.44494784     0.05900
H114        H  0.29771826  0.31200752  0.50812768     0.05740
O115        O  0.13331712  0.29400962  0.35936174    -0.86840
O116        O  0.11175467  0.32388839  0.09109167    -0.87000
O117        O  0.09342557  0.32813019  0.26411038    -0.88670
O118        O  0.08369336  0.25560886  0.19430112    -0.87430
O119        O  0.11422133  0.24204784  0.16788881    -0.87020
O120        O  0.12924496  0.37376014  0.27941615    -0.88390
O121        O  0.08376776  0.30594027  0.15977120    -0.86870
O122        O  0.09486829  0.27802436  0.30688151    -0.86450
Zr123      Zr  0.11231236  0.30283120  0.22635936     2.84310
O124        O  0.13344727  0.29600224  0.15721283    -1.08430
O125        O  0.14530899  0.33807727  0.28005373    -1.09160
C126        C  0.10688046  0.27830952  0.34941447     1.06270
C127        C  0.08837990  0.31510748  0.11441961     1.06210
C128        C  0.10341275  0.35251119  0.28460110     1.09200
C129        C  0.08917137  0.23853200  0.17203453     1.06980
H130        H  0.12698494  0.35289081  0.17416689     0.32530
O131        O  0.13904115  0.34595237  0.18473759    -1.29380
H132        H  0.13053302  0.26879649  0.27105321     0.32210
O133        O  0.14145854  0.28693639  0.25519420    -1.31060
O134        O  0.20243017  0.36752589  0.06766554    -0.86830
O135        O  0.22014377  0.33800940  0.34390036    -0.88330
O136        O  0.16745566  0.40744216  0.17002691    -0.86910
O137        O  0.15805623  0.26876293  0.09857067    -0.86960
O138        O  0.16920204  0.25523398  0.25197650    -0.86670
O139        O  0.18872628  0.39732973  0.32190245    -0.86470
O140        O  0.25270462  0.40663564  0.22995215    -0.86840
O141        O  0.24385781  0.33212777  0.16825116    -0.86310
O142        O  0.22261028  0.42128624  0.25362777    -0.87370
O143        O  0.20845400  0.28563015  0.15746399    -0.86530
O144        O  0.16102753  0.38149755  0.09870784    -0.86930
O145        O  0.16945268  0.35753848  0.36771970    -0.86650
O146        O  0.17573111  0.27919204  0.32654435    -0.86300
O147        O  0.15500938  0.30240011  0.05331942    -0.86710
O148        O  0.24065388  0.38169767  0.12139614    -0.87000
O149        O  0.24923083  0.35245252  0.27610580    -0.88340
Zr150      Zr  0.16028965  0.33848036  0.11580044     2.83100
Zr151      Zr  0.17392062  0.32238927  0.31148265     2.83500
Zr152      Zr  0.17305466  0.38104028  0.23842913     2.84090
Zr153      Zr  0.16378953  0.28141375  0.18577342     2.83360
Zr154      Zr  0.22412428  0.35793556  0.20250066     2.84220
O155        O  0.19611241  0.31540820  0.24329716    -1.08910
O156        O  0.19469941  0.37333767  0.17077936    -1.08410
C157        C  0.22916453  0.38167057  0.07849521     1.06240
C158        C  0.24382132  0.34589141  0.32312791     1.08860
C159        C  0.16318522  0.40287318  0.12213619     1.06420
C160        C  0.15552681  0.27923325  0.05715848     1.06780
C161        C  0.17372606  0.25863325  0.29965273     1.06360
C162        C  0.17645897  0.38388914  0.36129165     1.05910
C163        C  0.24752974  0.42426960  0.25128423     1.06340
C164        C  0.23431496  0.30665059  0.15312887     1.05850
H165        H  0.21538043  0.37686359  0.29387479     0.32530
O166        O  0.20158420  0.36433274  0.26934613    -1.30010
H167        H  0.20020193  0.32269736  0.11664554     0.32550
O168        O  0.19088140  0.32448964  0.14535054    -1.31400
C169        C  0.44491328  0.13641903  0.01383930     0.02780
C170        C  0.46650501  0.15669450  0.04672606    -0.13370
C171        C  0.48837602  0.15289236  0.06560018     0.00280
C172        C  0.48853820  0.12882232  0.05136709    -0.11890
C173        C  0.46720301  0.10802552  0.02053783     0.02770
C174        C  0.44572626  0.11204489  0.00083963    -0.11310
H175        H  0.46655782  0.17560567  0.05717468     0.08370
H176        H  0.00602468  0.12645256  0.06353998     0.05900
H177        H  0.43019910  0.09653877  0.97471582     0.05740
C178        C  0.49056713  0.01968122  0.98259891     0.01940
C179        C  0.01830970  0.02489154  0.97781216     0.01940
C180        C  0.02229936  0.50152765  0.97750352     0.01940
C181        C  0.99919111  0.47361190  0.98534100     0.01940
C182        C  0.47209390  0.46919103  0.99401601     0.01940
C183        C  0.46763166  0.49175408  0.98775984     0.01940
C184        C  0.14765897  0.47595003  0.98879534     0.02780
C185        C  0.17053529  0.49275662  0.95817884    -0.13370
C186        C  0.16989847  0.01222156  0.92598066     0.00280
C187        C  0.14640929  0.01538695  0.92434430    -0.11890
C188        C  0.12335203  0.49865590  0.95495859     0.02770
C189        C  0.12408127  0.47901252  0.98740458    -0.11310
H190        H  0.18934652  0.49130303  0.96041545     0.08370
H191        H  0.14640945  0.03128363  0.90057362     0.05900
H192        H  0.10643544  0.46629880  0.01160018     0.05740
C193        C  0.00337955  0.33268782  0.02634894     0.02780
C194        C  0.00520292  0.35885423  0.02484495    -0.13370
C195        C  0.49723746  0.36760927  0.98098337     0.00280
C196        C  0.48437508  0.34768205  0.94112737    -0.11890
C197        C  0.47910654  0.32014596  0.94616703     0.02770
C198        C  0.48897743  0.31295741  0.98838995    -0.11310
H199        H  0.01448834  0.37265455  0.05704731     0.08370
H200        H  0.47853655  0.35312381  0.90587966     0.05900
H201        H  0.48778194  0.29276667  0.98946022     0.05740
C202        C  0.14323345  0.18790402  0.93746228     0.02780
C203        C  0.16436502  0.18761425  0.90931647    -0.13370
C204        C  0.16158316  0.16207037  0.89374145     0.00280
C205        C  0.13691162  0.13648064  0.90501624    -0.11890
C206        C  0.11458955  0.13609445  0.93013833     0.02770
C207        C  0.11811714  0.16193944  0.94692868    -0.11310
H208        H  0.18348695  0.20730717  0.90055485     0.08370
H209        H  0.13502488  0.11674307  0.89391597     0.05900
H210        H  0.10157849  0.16175707  0.96830693     0.05740
C211        C  0.33828191  0.49735165  0.88350542     0.02780
C212        C  0.31218661  0.47788157  0.90530723    -0.13370
C213        C  0.31020656  0.45630534  0.93643715     0.00280
C214        C  0.33403809  0.45413701  0.94486838    -0.11890
C215        C  0.35998920  0.47376244  0.92449816     0.02770
C216        C  0.36190638  0.49509278  0.89371343    -0.11310
H217        H  0.29399076  0.48010568  0.89966716     0.08370
H218        H  0.33271942  0.43800177  0.96975680     0.05900
H219        H  0.38223488  0.01074655  0.87893870     0.05740
C220        C  0.36208438  0.30807311  0.01334549     0.02780
C221        C  0.33668239  0.30038310  0.03741879    -0.13370
C222        C  0.33399906  0.32048233  0.06464329     0.00280
C223        C  0.35697924  0.34862061  0.06744730    -0.11890
C224        C  0.38231880  0.35639229  0.04350218     0.02770
C225        C  0.38511959  0.33582720  0.01865688    -0.11310
H226        H  0.31821280  0.27948317  0.03153795     0.08370
H227        H  0.35446703  0.36474758  0.08521509     0.05900
H228        H  0.40459600  0.34219407  0.99937537     0.05740
C229        C  0.39166821  0.47383430  0.99177080    -0.26670
C230        C  0.38601676  0.47450415  0.94028569    -0.14740
C231        C  0.40642161  0.47869441  0.90500738     0.35890
C232        C  0.43297844  0.48467102  0.92213934    -0.26110
C233        C  0.43909132  0.48548941  0.97353952    -0.15350
C234        C  0.41805758  0.47890577  0.00878836     0.36980
N235        N  0.42341092  0.47702865  0.06117009    -0.89600
H236        H  0.37583809  0.47032393  0.01883381     0.18090
H237        H  0.44903218  0.48841945  0.89534852     0.18080
N238        N  0.40008294  0.47698893  0.85209933    -0.88630
H239        H  0.40526881  0.47100347  0.08173968     0.35460
H240        H  0.43874427  0.49717216  0.07397892     0.40560
H241        H  0.38387955  0.45625375  0.84392687     0.40180
H242        H  0.41752000  0.48071462  0.83134800     0.35060
C243        C  0.05156248  0.06029044  0.91742638    -0.26670
C244        C  0.04247407  0.05406104  0.96704666    -0.14740
C245        C  0.05643670  0.07553813  0.00424548     0.35890
C246        C  0.07923138  0.10220130  0.99081093    -0.26110
C247        C  0.08841111  0.10839584  0.94109769    -0.15350
C248        C  0.07363682  0.08715735  0.90369961     0.36980
N249        N  0.07946400  0.09226461  0.85120299    -0.89600
H250        H  0.04076574  0.04417654  0.88855926     0.18090
H251        H  0.09037957  0.11804815  0.01994116     0.18080
N252        N  0.04893486  0.07096866  0.05613535    -0.88630
H253        H  0.08929856  0.08140832  0.84004543     0.35460
H254        H  0.09295981  0.11366089  0.84371205     0.40560
H255        H  0.03229432  0.05043957  0.06223959     0.40180
H256        H  0.04181970  0.08448900  0.06580704     0.35060
C257        C  0.05600569  0.49820970  0.92292053    -0.26670
C258        C  0.05067178  0.50594227  0.96954956    -0.14740
C259        C  0.07071880  0.51390089  0.00941909     0.35890
C260        C  0.09500523  0.51279569  0.00208913    -0.26110
C261        C  0.09940366  0.50313325  0.95666689    -0.15350
C262        C  0.07988446  0.49614158  0.91608867     0.36980
N263        N  0.08272777  0.48567961  0.86858348    -0.89600
H264        H  0.04051232  0.49197568  0.89253602     0.18090
H265        H  0.10990130  0.51804740  0.03321291     0.18080
N266        N  0.06604527  0.52059111  0.05896769    -0.88630
H267        H  0.06532618  0.46516427  0.86368039     0.35460
H268        H  0.10060334  0.48395288  0.86791659     0.40560
H269        H  0.04595048  0.51763485  0.06224292     0.40180
H270        H  0.08082303  0.54195817  0.06592688     0.35060
C271        C  0.48408484  0.40143639  0.94467130    -0.26670
C272        C  0.50175549  0.39687938  0.97718195    -0.14740
C273        C  0.02244193  0.42042638  0.00656824     0.35890
C274        C  0.02049879  0.44457236  0.01078481    -0.26110
C275        C  0.00213935  0.44837102  0.97947372    -0.15350
C276        C  0.48598339  0.42765786  0.94263940     0.36980
N277        N  0.47128327  0.43327809  0.90365751    -0.89600
H278        H  0.46841756  0.38472995  0.92064036     0.18090
H279        H  0.03416956  0.46084776  0.03760804     0.18080
N280        N  0.04728484  0.42212815  0.02817327    -0.88630
H281        H  0.46034134  0.41588491  0.87940107     0.35460
H282        H  0.48649471  0.44991367  0.88232647     0.40560
H283        H  0.05106942  0.40712686  0.01270299     0.40180
H284        H  0.04510355  0.41978232  0.06700925     0.35060
C285        C  0.42625954  0.42439059  0.97378138    -0.26670
C286        C  0.44809149  0.44076957  0.00872549    -0.14740
C287        C  0.44678552  0.43026754  0.05758441     0.35890
C288        C  0.42440881  0.40297471  0.06953283    -0.26110
C289        C  0.40340743  0.38632443  0.03359877    -0.15350
C290        C  0.40400668  0.39732541  0.98565168     0.36980
N291        N  0.38228188  0.38053048  0.94878463    -0.89600
H292        H  0.42684035  0.43252725  0.93664935     0.18090
H293        H  0.42369155  0.39440674  0.10639596     0.18080
N294        N  0.46777573  0.44758555  0.09507837    -0.88630
H295        H  0.38600445  0.39150827  0.91512836     0.35460
H296        H  0.36315639  0.37726294  0.96206155     0.40560
H297        H  0.48715005  0.45051419  0.08425523     0.40180
H298        H  0.46318595  0.43712615  0.12940805     0.35060
C299        C  0.98105938  0.04877020  0.03879158    -0.26670
C300        C  0.48495500  0.04295755  0.98960277    -0.14740
C301        C  0.47935122  0.05608141  0.94933670     0.35890
C302        C  0.47170006  0.07621171  0.95963992    -0.26110
C303        C  0.46902172  0.08280407  0.00926841    -0.15350
C304        C  0.47272510  0.06809805  0.04906882     0.36980
N305        N  0.96842549  0.07329736  0.09999716    -0.89600
H306        H  0.98423507  0.03780138  0.06948991     0.18090
H307        H  0.46875641  0.08743397  0.92911179     0.18080
N308        N  0.48080787  0.04853358  0.89848244    -0.88630
H309        H  0.97221881  0.06094906  0.12486580     0.35460
H310        H  0.94708271  0.06683631  0.10304654     0.40560
H311        H  0.50189955  0.05546710  0.89144901     0.40180
H312        H  0.47491103  0.05924961  0.87350955     0.35060
C313        C  0.12686469  0.22160993  0.95813422    -0.26670
C314        C  0.14831132  0.21504124  0.95995626    -0.14740
C315        C  0.17406105  0.23389052  0.98565681     0.35890
C316        C  0.17719270  0.25779706  0.01023569    -0.26110
C317        C  0.15489756  0.26294881  0.01236484    -0.15350
C318        C  0.12989814  0.24540466  0.98360094     0.36980
N319        N  0.10676237  0.25021696  0.98128213    -0.89600
H320        H  0.10725866  0.20774370  0.93771978     0.18090
H321        H  0.19627783  0.27100404  0.03256212     0.18080
N322        N  0.19623332  0.22766608  0.99017586    -0.88630
H323        H  0.10298120  0.25249653  0.94350162     0.35460
H324        H  0.11251130  0.26946580  0.99831179     0.40560
H325        H  0.18852866  0.20926883  0.01128034     0.40180
H326        H  0.21371815  0.24364005  0.01016388     0.35060
C327        C  0.26744906  0.32226678  0.08434642    -0.26670
C328        C  0.25506743  0.30355332  0.12441231    -0.14740
C329        C  0.26702136  0.28788742  0.14161004     0.35890
C330        C  0.29228027  0.29262669  0.12008525    -0.26110
C331        C  0.30585623  0.31323292  0.08291471    -0.15350
C332        C  0.29268389  0.32733884  0.06355779     0.36980
N333        N  0.30549327  0.34740143  0.02380100    -0.89600
H334        H  0.25813790  0.33424893  0.07111510     0.18090
H335        H  0.30216987  0.28134579  0.13402736     0.18080
N336        N  0.25426028  0.26829163  0.18194325    -0.88630
H337        H  0.29353883  0.35653197  0.01470462     0.35460
H338        H  0.30527932  0.33632626  0.99191886     0.40560
H339        H  0.25567974  0.27983451  0.21400156     0.40180
H340        H  0.26568996  0.25847713  0.19007977     0.35060
C341        C  0.03845929  0.30373926  0.10911592    -0.26670
C342        C  0.06596325  0.31823955  0.08964060    -0.14740
C343        C  0.07244400  0.33847083  0.05163115     0.35890
C344        C  0.05173274  0.34398407  0.03507356    -0.26110
C345        C  0.02457193  0.32969557  0.05471176    -0.15350
C346        C  0.01759738  0.30904007  0.09175798     0.36980
N347        N  0.98991556  0.29344103  0.11286506    -0.89600
H348        H  0.03311113  0.28829537  0.13842561     0.18090
H349        H  0.05656437  0.35910522  0.00529767     0.18080
N350        N  0.10014382  0.35402440  0.03070157    -0.88630
H351        H  0.98099336  0.27223760  0.10246667     0.35460
H352        H  0.47661033  0.30001145  0.09833371     0.40560
H353        H  0.11344096  0.36819413  0.05848416     0.40180
H354        H  0.10056614  0.36641473  0.00070232     0.35060
C355        C  0.02829446  0.20249754  0.07837215    -0.26670
C356        C  0.01303334  0.17479629  0.09611866    -0.14740
C357        C  0.02352174  0.16763184  0.13916070     0.35890
C358        C  0.04941526  0.18811281  0.16230828    -0.26110
C359        C  0.06470186  0.21562824  0.14378861    -0.15350
C360        C  0.05377131  0.22295669  0.10197856     0.36980
N361        N  0.06845986  0.25155906  0.08439036    -0.89600
H362        H  0.02058894  0.20808258  0.04533586     0.18090
H363        H  0.05721275  0.18287760  0.19564594     0.18080
N364        N  0.00764735  0.13966425  0.15946458    -0.88630
H365        H  0.05814524  0.25355655  0.05279182     0.35460
H366        H  0.08847837  0.25643393  0.07327067     0.40560
H367        H  0.48844576  0.13665297  0.17175325     0.40180
H368        H  0.01812690  0.13782002  0.19096333     0.35060
C369        C  0.26260146  0.42948569  0.04760115    -0.26670
C370        C  0.24798532  0.40020456  0.03900345    -0.14740
C371        C  0.25114794  0.38966631  0.99271647     0.35890
C372        C  0.26981370  0.40877431  0.95736239    -0.26110
C373        C  0.28517395  0.43801839  0.96686665    -0.15350
C374        C  0.28104955  0.44839321  0.01216836     0.36980
N375        N  0.29637419  0.47798052  0.02410166    -0.89600
H376        H  0.25994065  0.43772189  0.08255923     0.18090
H377        H  0.27344439  0.40064306  0.92321713     0.18080
N378        N  0.23665560  0.35994500  0.98087868    -0.88630
H379        H  0.29176625  0.48842328  0.99631692     0.35460
H380        H  0.31804361  0.48544274  0.02373692     0.40560
H381        H  0.22427540  0.34759568  0.01034042     0.40180
H382        H  0.25197092  0.35455686  0.97581149     0.35060
C383        C  0.16242459  0.42116050  0.03782325    -0.26670
C384        C  0.15972014  0.42274512  0.08993789    -0.14740
C385        C  0.15138290  0.44113505  0.10848538     0.35890
C386        C  0.14649046  0.45779227  0.07484746    -0.26110
C387        C  0.14946719  0.45606737  0.02304891    -0.15350
C388        C  0.15679871  0.43707061  0.00449739     0.36980
N389        N  0.15821800  0.43364307  0.95156519    -0.89600
H390        H  0.16847832  0.40703714  0.02228663     0.18090
H391        H  0.14085737  0.47246402  0.08928292     0.18080
N392        N  0.14744429  0.44271439  0.16101380    -0.88630
H393        H  0.14395522  0.41246048  0.94211857     0.35460
H394        H  0.17860328  0.43816473  0.94374734     0.40560
H395        H  0.12656364  0.43746239  0.16603231     0.40180
H396        H  0.16085538  0.46364074  0.17294091     0.35060
C397        C  0.30138081  0.33788241  0.38808984    -0.26670
C398        C  0.30201414  0.34904758  0.43567451    -0.14740
C399        C  0.28483532  0.36039679  0.44469127     0.35890
C400        C  0.26739177  0.36016374  0.40595501    -0.26110
C401        C  0.26609447  0.34850751  0.35835543    -0.15350
C402        C  0.28332894  0.33701553  0.34939289     0.36980
N403        N  0.28225284  0.32309986  0.30320686    -0.89600
H404        H  0.31495743  0.32957352  0.38108792     0.18090
H405        H  0.25426093  0.36893119  0.41350975     0.18080
N406        N  0.28473471  0.37263849  0.49221585    -0.88630
H407        H  0.30157222  0.33558094  0.28556335     0.35460
H408        H  0.26634441  0.32090108  0.27864138     0.40560
H409        H  0.29835436  0.37163456  0.51862615     0.40180
H410        H  0.26436773  0.36052981  0.50639818     0.35060
C411        C  0.15923576  0.19452491  0.37385227    -0.26670
C412        C  0.17994041  0.18957658  0.35515951    -0.14740
C413        C  0.19936565  0.20853381  0.32003116     0.35890
C414        C  0.19789347  0.23205943  0.30570204    -0.26110
C415        C  0.17693226  0.23666514  0.32396502    -0.15350
C416        C  0.15691922  0.21725243  0.35770229     0.36980
N417        N  0.13349970  0.21917567  0.37502747    -0.89600
H418        H  0.14434594  0.18031357  0.40112512     0.18090
H419        H  0.21253607  0.24628885  0.27813735     0.18080
N420        N  0.21963681  0.20388224  0.29593849    -0.88630
H421        H  0.11484908  0.20094766  0.36288076     0.35460
H422        H  0.13297490  0.23605625  0.35895545     0.40560
H423        H  0.21662680  0.18410145  0.30421485     0.40180
H424        H  0.23978947  0.21927898  0.30925354     0.35060
C425        C  0.06865820  0.37723694  0.37810058    -0.26670
C426        C  0.04429597  0.35125168  0.39141842    -0.14740
C427        C  0.03985585  0.32639462  0.36822683     0.35890
C428        C  0.05957196  0.32779589  0.33459154    -0.26110
C429        C  0.08329177  0.35372806  0.31979038    -0.15350
C430        C  0.08718269  0.37881482  0.34075667     0.36980
N431        N  0.10907885  0.40573571  0.32298301    -0.89600
H432        H  0.07312781  0.39670401  0.39586498     0.18090
H433        H  0.05562910  0.30791485  0.31935661     0.18080
N434        N  0.01480121  0.29956886  0.37676119    -0.88630
H435        H  0.10834714  0.42205339  0.34111788     0.35460
H436        H  0.10471366  0.40696166  0.28504312     0.40560
H437        H  0.02090724  0.28579201  0.39059429     0.40180
H438        H  0.00419204  0.29152171  0.34233971     0.35060
C439        C  0.28049630  0.47559780  0.27766624    -0.26670
C440        C  0.27169918  0.44688929  0.28158614    -0.14740
C441        C  0.28626548  0.43928133  0.31655752     0.35890
C442        C  0.30821161  0.45945029  0.34637787    -0.26110
C443        C  0.31745099  0.48799104  0.34255332    -0.15350
C444        C  0.30374350  0.49643001  0.30684933     0.36980
N445        N  0.31300129  0.02560966  0.29850176    -0.89600
H446        H  0.26982837  0.48194798  0.25104046     0.18090
H447        H  0.31771797  0.45236872  0.37417527     0.18080
N448        N  0.27861571  0.41080069  0.32477237    -0.88630
H449        H  0.31845549  0.02983998  0.26082868     0.35460
H450        H  0.33154334  0.03898178  0.31898109     0.40560
H451        H  0.28252743  0.40305166  0.29229809     0.40180
H452        H  0.25731632  0.39926682  0.33399272     0.35060
C453        C  0.16690264  0.42281915  0.37147601    -0.26670
C454        C  0.16890175  0.40100649  0.39553779    -0.14740
C455        C  0.16464957  0.39849402  0.44824445     0.35890
C456        C  0.15846808  0.41727927  0.47371122    -0.26110
C457        C  0.15683250  0.43896431  0.44854487    -0.15350
C458        C  0.16196015  0.44193455  0.39666246     0.36980
N459        N  0.16270683  0.46428868  0.36762694    -0.89600
H460        H  0.16955875  0.42571053  0.33134827     0.18090
H461        H  0.15520181  0.41508172  0.51377240     0.18080
N462        N  0.16748609  0.37834722  0.47769724    -0.88630
H463        H  0.18284335  0.47608756  0.35241184     0.35460
H464        H  0.16038536  0.47848307  0.38951332     0.40560
H465        H  0.17381261  0.36701166  0.45616837     0.40180
H466        H  0.14755389  0.36386188  0.49157735     0.35060
C467        C  0.08759406  0.22927840  0.46074123    -0.26670
C468        C  0.05843002  0.21281399  0.45418522    -0.14740
C469        C  0.04452272  0.21899399  0.41602551     0.35890
C470        C  0.06058602  0.24133338  0.38334021    -0.26110
C471        C  0.09015740  0.25777803  0.38888114    -0.15350
C472        C  0.10371356  0.25215205  0.42956201     0.36980
N473        N  0.13380277  0.26912626  0.43892165    -0.89600
H474        H  0.09775224  0.22455753  0.49117773     0.18090
H475        H  0.05000396  0.24555744  0.35301284     0.18080
N476        N  0.01421610  0.20237042  0.41048568    -0.88630
H477        H  0.14024376  0.26059092  0.46749970     0.35460
H478        H  0.13825611  0.28881043  0.45219557     0.40560
H479        H  0.00864782  0.18180054  0.40077373     0.40180
H480        H  0.00726314  0.20982444  0.38087708     0.35060
C481        C  0.41140909  0.41091023  0.44926646    -0.26670
C482        C  0.40004976  0.40692148  0.49733943    -0.14740
C483        C  0.41376111  0.42911345  0.53320562     0.35890
C484        C  0.43882937  0.45403860  0.52032734    -0.26110
C485        C  0.45042769  0.45771308  0.47246554    -0.15350
C486        C  0.43604432  0.43590105  0.43611015     0.36980
N487        N  0.44516263  0.43846604  0.38525783    -0.89600
H488        H  0.40056347  0.39443530  0.42099259     0.18090
H489        H  0.44974425  0.47059299  0.54841710     0.18080
N490        N  0.40287870  0.42749017  0.58241748    -0.88630
H491        H  0.44901991  0.42222447  0.37816834     0.35460
H492        H  0.46403948  0.45748568  0.37961522     0.40560
H493        H  0.38393704  0.40847244  0.58770891     0.40180
H494        H  0.39814614  0.44341619  0.58531420     0.35060
C495        C  0.00889413  0.10265950  0.45955113    -0.26670
C496        C  0.01992742  0.11423070  0.50694087    -0.14740
C497        C  0.02727374  0.09960079  0.54111342     0.35890
C498        C  0.02440071  0.07386970  0.52599126    -0.26110
C499        C  0.01423068  0.06260363  0.47755669    -0.15350
C500        C  0.00591229  0.07723931  0.44428783     0.36980
N501        N  0.99643254  0.06840985  0.39351705    -0.89600
H502        H  0.00314123  0.11397730  0.43340511     0.18090
H503        H  0.53006307  0.06246953  0.55204826     0.18080
N504        N  0.03769580  0.11096689  0.59059848    -0.88630
H505        H  0.97540932  0.06320813  0.39000336     0.35460
H506        H  0.99760086  0.05090418  0.38407850     0.40560
H507        H  0.05699744  0.12995033  0.58684493     0.40180
H508        H  0.54197599  0.09747785  0.61121322     0.35060
C509        C  0.09995234  0.09939641  0.41741690    -0.26670
C510        C  0.12331477  0.09909567  0.43938741    -0.14740
C511        C  0.11650488  0.07756741  0.47564801     0.35890
C512        C  0.08786355  0.05898591  0.48877924    -0.26110
C513        C  0.06515804  0.05698895  0.46010663    -0.15350
C514        C  0.07204345  0.07740073  0.42295216     0.36980
N515        N  0.05124548  0.07516102  0.38759071    -0.89600
H516        H  0.10226030  0.11599848  0.39339824     0.18090
H517        H  0.08329800  0.04440480  0.51917314     0.18080
N518        N  0.13785917  0.07329105  0.49767801    -0.88630
H519        H  0.05695918  0.07227399  0.35197428     0.35460
H520        H  0.05215486  0.09450437  0.38738969     0.40560
H521        H  0.14539346  0.06620992  0.46904426     0.40180
H522        H  0.12921676  0.05714434  0.52412114     0.35060
C523        C  0.44568108  0.01876294  0.49508529    -0.26670
C524        C  0.45725467  0.01263091  0.45442537    -0.14740
C525        C  0.44301112  0.50650529  0.40733165     0.35890
C526        C  0.42017403  0.01069215  0.40048600    -0.26110
C527        C  0.40822692  0.01701957  0.44087883    -0.15350
C528        C  0.42079888  0.01963716  0.48963185     0.36980
N529        N  0.40769075  0.02021337  0.53505755    -0.89600
H530        H  0.45532008  0.02150245  0.53206631     0.18090
H531        H  0.41155234  0.50847943  0.36290773     0.18080
N532        N  0.45082186  0.49485548  0.36697603    -0.88630
H533        H  0.38565916  0.00781056  0.53137778     0.35460
H534        H  0.41450158  0.04108963  0.54473038     0.40560
H535        H  0.47154674  0.50899120  0.35662565     0.40180
H536        H  0.43797100  0.49114989  0.33513174     0.35060
C537        C  0.09137961  0.99195339  0.42974434    -0.26670
C538        C  0.09493187  0.98106630  0.47520755    -0.14740
C539        C  0.07757583  0.47817111  0.51584956     0.35890
C540        C  0.05860719  0.48760286  0.51101960    -0.26110
C541        C  0.05460996  0.99816116  0.46576489    -0.15350
C542        C  0.07118922  0.00018124  0.42424388     0.36980
N543        N  0.06831521  0.01054845  0.37642515    -0.89600
H544        H  0.10505081  0.99496851  0.39880467     0.18090
H545        H  0.04673084  0.48666008  0.54334502     0.18080
N546        N  0.07911141  0.46641248  0.56314564    -0.88630
H547        H  0.08729312  0.02947181  0.36999468     0.35460
H548        H  0.05241056  0.01536348  0.37647488     0.40560
H549        H  0.09275177  0.45869626  0.56193305     0.40180
H550        H  0.05905862  0.44879266  0.56951753     0.35060
C551        C  0.49006664  0.40822536  0.49650782    -0.26670
C552        C  0.49483627  0.39963261  0.45000771    -0.14740
C553        C  0.99998745  0.41678130  0.40764203     0.35890
C554        C  0.00302744  0.44318063  0.41355636    -0.26110
C555        C  0.49858633  0.45173803  0.45999792    -0.15350
C556        C  0.49109337  0.43382228  0.50163844     0.36980
N557        N  0.48428274  0.44143848  0.54852753    -0.89600
H558        H  0.48617506  0.39529794  0.52936555     0.18090
H559        H  0.00826608  0.45690506  0.38141795     0.18080
N560        N  0.00156166  0.40732490  0.35850733    -0.88630
H561        H  0.47893895  0.42564269  0.57510598     0.35460
H562        H  0.50207921  0.45966549  0.56272036     0.40560
H563        H  0.02121468  0.42203511  0.34386109     0.40180
H564        H  0.98587164  0.40720158  0.33576079     0.35060
C565        C  0.21934300  0.17617980  0.80151707    -0.26670
C566        C  0.23214652  0.16272547  0.82505189    -0.14740
C567        C  0.22090654  0.14827844  0.87044894     0.35890
C568        C  0.19778047  0.14829771  0.89160241    -0.26110
C569        C  0.18525409  0.16203111  0.86825459    -0.15350
C570        C  0.19605284  0.17587508  0.82213841     0.36980
N571        N  0.18345885  0.18893760  0.79410545    -0.89600
H572        H  0.22744263  0.18705433  0.76641556     0.18090
H573        H  0.18947107  0.13757198  0.92674918     0.18080
N574        N  0.23258820  0.13320205  0.89449132    -0.88630
H575        H  0.19777729  0.21075531  0.79489431     0.35460
H576        H  0.16471810  0.18525274  0.80972631     0.40560
H577        H  0.22877735  0.11659841  0.87053923     0.40180
H578        H  0.22206150  0.12394069  0.92765352     0.35060
C579        C  0.34904912  0.24242403  0.94378558    -0.26670
C580        C  0.35913254  0.25329339  0.89572540    -0.14740
C581        C  0.37341116  0.28287671  0.88888233     0.35890
C582        C  0.37443346  0.30019437  0.92816346    -0.26110
C583        C  0.36299160  0.28906485  0.97519386    -0.15350
C584        C  0.35122886  0.26001155  0.98364668     0.36980
N585        N  0.34138460  0.24845535  0.03250214    -0.89600
H586        H  0.33906901  0.21997767  0.95047411     0.18090
H587        H  0.38365939  0.32255262  0.92139539     0.18080
N588        N  0.38648864  0.29537101  0.84216363    -0.88630
H589        H  0.33320936  0.22667288  0.03239812     0.35460
H590        H  0.35892599  0.25748178  0.05711486     0.40560
H591        H  0.40361166  0.29248281  0.83834691     0.40180
H592        H  0.39505251  0.31721911  0.84299534     0.35060
C593        C  0.44389863  0.17738566  0.57241409    -0.26670
C594        C  0.44327656  0.17805840  0.62490995    -0.14740
C595        C  0.46558706  0.17891250  0.65364492     0.35890
C596        C  0.48593066  0.17570038  0.62924050    -0.26110
C597        C  0.48462565  0.17224979  0.57724127    -0.15350
C598        C  0.46351529  0.17329782  0.54821817     0.36980
N599        N  0.46091550  0.16974227  0.49445097    -0.89600
H600        H  0.42777194  0.17797768  0.54961932     0.18090
H601        H  0.00302358  0.17613601  0.65066933     0.18080
N602        N  0.46773667  0.18323681  0.70711077    -0.88630
H603        H  0.44078915  0.15241848  0.48587448     0.35460
H604        H  0.47496429  0.16437587  0.48035788     0.40560
H605        H  0.47154458  0.20354023  0.71382459     0.40180
H606        H  0.48517983  0.18293404  0.72217889     0.35060
C607        C  0.46530973  0.30971504  0.56687646    -0.26670
C608        C  0.46311722  0.30471070  0.51496206    -0.14740
C609        C  0.43967007  0.27992120  0.49493559     0.35890
C610        C  0.41903652  0.26034540  0.52740743    -0.26110
C611        C  0.42106176  0.26513865  0.57971239    -0.15350
C612        C  0.44476266  0.29013265  0.59954306     0.36980
N613        N  0.44824577  0.29538762  0.65268278    -0.89600
H614        H  0.48305714  0.32923619  0.58185474     0.18090
H615        H  0.40101777  0.24136921  0.51151653     0.18080
N616        N  0.43660929  0.27504245  0.44161047    -0.88630
H617        H  0.46658737  0.31482083  0.66094723     0.35460
H618        H  0.45131237  0.27990081  0.66858464     0.40560
H619        H  0.43383196  0.29064315  0.42529429     0.40180
H620        H  0.41829261  0.25567479  0.43289305     0.35060
C621        C  0.42690635  0.25325727  0.87734703    -0.26670
C622        C  0.44099935  0.25608827  0.83269351    -0.14740
C623        C  0.46741572  0.28071342  0.82447062     0.35890
C624        C  0.47945219  0.30184012  0.86157601    -0.26110
C625        C  0.46517703  0.29884361  0.90620812    -0.15350
C626        C  0.43872199  0.27419302  0.91423217     0.36980
N627        N  0.42303707  0.27030025  0.95875735    -0.89600
H628        H  0.40594085  0.23499934  0.88280889     0.18090
H629        H  0.49998876  0.32059707  0.85570639     0.18080
N630        N  0.48220788  0.28476333  0.77889534    -0.88630
H631        H  0.42025170  0.28746837  0.96281453     0.35460
H632        H  0.43465404  0.26986607  0.98973789     0.40560
H633        H  0.46945293  0.28444902  0.74924014     0.40180
H634        H  0.48519412  0.26775804  0.77416625     0.35060
C635        C  0.37702549  0.12693652  0.94973237    -0.26670
C636        C  0.38726341  0.15386633  0.92916314    -0.14740
C637        C  0.41529511  0.17530693  0.94165071     0.35890
C638        C  0.43289122  0.16946926  0.97137812    -0.26110
C639        C  0.42354455  0.14219747  0.98923823    -0.15350
C640        C  0.39471809  0.12092755  0.97997223     0.36980
N641        N  0.38366448  0.09312927  0.00006895    -0.89600
H642        H  0.35584521  0.11003609  0.93931119     0.18090
H643        H  0.45471937  0.18619413  0.97758550     0.18080
N644        N  0.42672437  0.20292179  0.92120243    -0.88630
H645        H  0.36237160  0.07994418  0.98949434     0.35460
H646        H  0.38441738  0.09496505  0.03915697     0.40560
H647        H  0.44419718  0.20741287  0.89980325     0.40180
H648        H  0.43388472  0.21740989  0.95105027     0.35060
C649        C  0.34610882  0.29508673  0.56184374    -0.26670
C650        C  0.33455186  0.31132100  0.57537525    -0.14740
C651        C  0.31696346  0.30326901  0.61786281     0.35890
C652        C  0.31166554  0.27928361  0.64557985    -0.26110
C653        C  0.32325178  0.26301305  0.63167214    -0.15350
C654        C  0.34048848  0.27101295  0.58869817     0.36980
N655        N  0.35292966  0.25537961  0.57127706    -0.89600
H656        H  0.35927041  0.30086045  0.52913699     0.18090
H657        H  0.29904997  0.27379076  0.67892729     0.18080
N658        N  0.30459519  0.31908124  0.63450511    -0.88630
H659        H  0.34631516  0.24936618  0.53399732     0.35460
H660        H  0.34544989  0.23655277  0.59070556     0.40560
H661        H  0.31037168  0.33660778  0.61198351     0.40180
H662        H  0.31289763  0.32700463  0.67038956     0.35060
C663        C  0.24877209  0.18330552  0.48270219    -0.26670
C664        C  0.23237296  0.15695491  0.45876446    -0.14740
C665        C  0.24223005  0.13785683  0.45930407     0.35890
C666        C  0.26676121  0.14467460  0.48768406    -0.26110
C667        C  0.28172732  0.17017086  0.51488772    -0.15350
C668        C  0.27315149  0.18999943  0.51048070     0.36980
N669        N  0.28786003  0.21610940  0.53800592    -0.89600
H670        H  0.24178315  0.19832614  0.48221484     0.18090
H671        H  0.27285414  0.12904857  0.49158087     0.18080
N672        N  0.22794318  0.11146689  0.43217058    -0.88630
H673        H  0.27366023  0.21678850  0.56242005     0.35460
H674        H  0.29424964  0.23259476  0.51251171     0.40560
H675        H  0.21168965  0.10968368  0.40890662     0.40180
H676        H  0.21868431  0.09532309  0.45850054     0.35060
C677        C  0.33102767  0.03992012  0.77890083    -0.26670
C678        C  0.35249961  0.06783188  0.79184096    -0.14740
C679        C  0.37015129  0.07211201  0.83422518     0.35890
C680        C  0.36464656  0.04886148  0.86405538    -0.26110
C681        C  0.34224276  0.02132599  0.85226124    -0.15350
C682        C  0.32576419  0.01686404  0.80866270     0.36980
N683        N  0.30379204  0.98890131  0.79420073    -0.89600
H684        H  0.31744386  0.03592367  0.74621374     0.18090
H685        H  0.37776263  0.05227820  0.89719416     0.18080
N686        N  0.39285305  0.09998825  0.84812502    -0.88630
H687        H  0.30812112  0.98466938  0.75837963     0.35460
H688        H  0.28470624  0.48853356  0.79199063     0.40560
H689        H  0.40794912  0.10678818  0.82015717     0.40180
H690        H  0.40299942  0.09947152  0.88126854     0.35060
C691        C  0.22548682  0.04495154  0.82672169    -0.26670
C692        C  0.24674166  0.06903208  0.85269057    -0.14740
C693        C  0.24275347  0.07320947  0.90356840     0.35890
C694        C  0.21698419  0.05450895  0.92568520    -0.26110
C695        C  0.19550199  0.03139745  0.89888659    -0.15350
C696        C  0.19988758  0.02601487  0.84923228     0.36980
N697        N  0.17911361  0.00170711  0.82075323    -0.89600
H698        H  0.22829870  0.04117159  0.78803761     0.18090
H699        H  0.21361949  0.05780437  0.96437192     0.18080
N700        N  0.26468007  0.09644076  0.93261348    -0.88630
H701        H  0.17273645  0.00898645  0.79002975     0.35460
H702        H  0.16100725  0.48895637  0.84132543     0.40560
H703        H  0.28163610  0.09318974  0.93633439     0.40180
H704        H  0.25796360  0.09665402  0.96889488     0.35060
C705        C  0.22945633  0.07199122  0.57030053    -0.26670
C706        C  0.22254444  0.07398584  0.61995675    -0.14740
C707        C  0.19785282  0.05122658  0.64019480     0.35890
C708        C  0.18029119  0.02721945  0.60999062    -0.26110
C709        C  0.18760850  0.02492855  0.56071145    -0.15350
C710        C  0.21239135  0.04766247  0.54059409     0.36980
N711        N  0.21988843  0.04615374  0.48988821    -0.89600
H712        H  0.24908269  0.08899022  0.55550347     0.18090
H713        H  0.16081753  0.01007154  0.62494323     0.18080
N714        N  0.19082851  0.05252742  0.69132575    -0.88830
H715        H  0.23845643  0.06484634  0.48056165     0.35460
H716        H  0.22456489  0.03016237  0.48816893     0.40560
H717        H  0.20645706  0.05282536  0.71448341     0.40180
H718        H  0.17177470  0.03424384  0.70024626     0.35060
C719        C  0.36659902  0.08002024  0.50575367    -0.26670
C720        C  0.34484941  0.05338220  0.48941025    -0.14740
C721        C  0.31760568  0.04188277  0.50990266     0.35890
C722        C  0.31261287  0.05769693  0.54501011    -0.26110
C723        C  0.33462011  0.08442290  0.56088154    -0.15350
C724        C  0.36206993  0.09504203  0.54251700     0.36980
N725        N  0.38560257  0.12076939  0.56258074    -0.89600
H726        H  0.38751220  0.08908441  0.49035533     0.18090
H727        H  0.29160553  0.04912347  0.55974233     0.18080
N728        N  0.29520913  0.01396119  0.49632752    -0.88630
H729        H  0.40427664  0.12474044  0.54615401     0.35460
H730        H  0.38774428  0.11749121  0.60063112     0.40560
H731        H  0.27834305  0.01534537  0.48140148     0.40180
H732        H  0.28837054  0.00197464  0.52898725     0.35060
O733        O  0.34192458  0.62830762  0.58406159    -0.86840
O734        O  0.28446365  0.61602584  0.84432813    -0.87000
O735        O  0.32806851  0.58475284  0.74527322    -0.88670
O736        O  0.26137327  0.58708492  0.67188424    -0.87430
O737        O  0.25016567  0.62101013  0.65583985    -0.87020
O738        O  0.37319243  0.61734383  0.77162355    -0.88390
O739        O  0.27555929  0.58456368  0.78068084    -0.86870
O740        O  0.31602441  0.59099916  0.63644163    -0.86450
Zr741      Zr  0.30718230  0.61026649  0.71228332     2.84310
O742        O  0.29034096  0.63704634  0.74855466    -1.08430
O743        O  0.35338549  0.64000677  0.68577402    -1.09160
C744        C  0.32982712  0.60205899  0.59582413     1.06270
C745        C  0.27089630  0.59113047  0.82444057     1.06210
C746        C  0.35182393  0.59161526  0.76686073     1.09200
C747        C  0.24552914  0.59544879  0.65267853     1.06980
H748        H  0.33401802  0.62230161  0.80783340     0.32530
O749        O  0.33511017  0.63519476  0.78235950    -1.29380
H750        H  0.29655144  0.63069859  0.62355907     0.32210
O751        O  0.30738442  0.64120438  0.65289385    -1.31060
O752        O  0.33849875  0.70664421  0.86419449    -0.86830
O753        O  0.38547645  0.71763886  0.59342152    -0.88330
O754        O  0.38778189  0.66001881  0.84327733    -0.86910
O755        O  0.25763243  0.66542177  0.75242945    -0.86960
O756        O  0.28371209  0.67001206  0.60061201    -0.86670
O757        O  0.41573875  0.67135672  0.69587745    -0.86470
O758        O  0.41244811  0.74635695  0.76246028    -0.86840
O759        O  0.34467609  0.74877734  0.69134585    -0.86310
O760        O  0.41684566  0.71047469  0.79533230    -0.87370
O761        O  0.30020390  0.71525163  0.66220884    -0.86530
O762        O  0.34989817  0.65699196  0.88327474    -0.86930
O763        O  0.39923267  0.67564337  0.61892832    -0.86650
O764        O  0.32079800  0.67143527  0.56020365    -0.86300
O765        O  0.27547545  0.66283151  0.82955228    -0.86710
O766        O  0.36327959  0.74303852  0.80991263    -0.87000
O767        O  0.39553630  0.74936322  0.65710003    -0.88340
Zr768      Zr  0.31943412  0.66281990  0.81782775     2.83100
Zr769      Zr  0.35327329  0.67138047  0.62638812     2.83500
Zr770      Zr  0.38126744  0.66512386  0.75591115     2.84090
Zr771      Zr  0.28974192  0.66757205  0.68863265     2.83360
Zr772      Zr  0.36518233  0.72354328  0.72864355     2.84220
O773        O  0.33585668  0.69759946  0.66133699    -1.08910
O774        O  0.36475779  0.69259852  0.78902015    -1.08410
C775        C  0.35347002  0.73313795  0.85375583     1.06240
C776        C  0.39921151  0.74278401  0.61234881     1.08860
C777        C  0.37364422  0.65712234  0.88272030     1.06420
C778        C  0.25668848  0.66362805  0.80086106     1.06780
C779        C  0.29699767  0.67089311  0.56113900     1.06360
C780        C  0.41793211  0.67516322  0.64822187     1.05910
C781        C  0.42366755  0.73661162  0.79241502     1.06340
C782        C  0.32184206  0.74097301  0.66548089     1.05850
H783        H  0.40166706  0.70922043  0.68624598     0.32530
O784        O  0.38231596  0.69657052  0.69567278    -1.30010
H785        H  0.31224704  0.70547244  0.77143042     0.32550
O786        O  0.31897821  0.69403148  0.75733423    -1.31400
C787        C  0.47911879  0.98319274  0.46425892     0.01940
C788        C  0.50285370  0.98021118  0.46381456     0.01940
C789        C  0.03075986  0.50387514  0.46307796     0.01940
C790        C  0.03526790  0.53167693  0.46413508     0.01940
C791        C  0.01089033  0.53469898  0.46517912     0.01940
C792        C  0.48292726  0.51032683  0.46205218     0.01940
C793        C  0.00711462  0.67063504  0.55311777     0.02780
C794        C  0.00669562  0.64514198  0.55118062    -0.13370
C795        C  0.02441554  0.64227579  0.51806525     0.00280
C796        C  0.04252919  0.66504736  0.48761639    -0.11890
C797        C  0.04258952  0.69027892  0.48993793     0.02770
C798        C  0.02572492  0.69339163  0.52391492    -0.11310
H799        H  0.99109426  0.62704243  0.57194801     0.08370
H800        H  0.05520301  0.66252093  0.46001564     0.05900
H801        H  0.02528939  0.71275643  0.52455215     0.05740
C802        C  0.15033726  0.95868814  0.47590192     0.02780
C803        C  0.17090342  0.48006218  0.50833828    -0.13370
C804        C  0.16653533  0.50113090  0.52822843     0.00280
C805        C  0.14169191  0.50064648  0.51588924    -0.11890
C806        C  0.12092349  0.47983732  0.48431427     0.02770
C807        C  0.12517806  0.95877665  0.46420260    -0.11310
H808        H  0.19048934  0.48075717  0.51684697     0.08370
H809        H  0.13850168  0.51694288  0.53097910     0.05900
H810        H  0.10935053  0.94291729  0.43889473     0.05740
C811        C  0.35181790  0.53759413  0.45331859     0.02780
C812        C  0.37683793  0.53696952  0.46018315    -0.13370
C813        C  0.38250946  0.51956955  0.43059644     0.00280
C814        C  0.36333101  0.50468497  0.39033878    -0.11890
C815        C  0.33942712  0.50702775  0.38019384     0.02770
C816        C  0.33373003  0.52323357  0.41240788    -0.11310
H817        H  0.39167853  0.54999728  0.48920416     0.08370
H818        H  0.36615769  0.99030095  0.36739945     0.05900
H819        H  0.31474047  0.52403727  0.40626886     0.05740
C820        C  0.02229906  0.85096822  0.42425727     0.02780
C821        C  0.50477392  0.82825267  0.45640679    -0.13370
C822        C  0.48249957  0.82795136  0.48181505     0.00280
C823        C  0.47820757  0.85045833  0.47642377    -0.11890
C824        C  0.49644573  0.87388426  0.44796847     0.02770
C825        C  0.01806484  0.87382999  0.42177932    -0.11310
H826        H  0.50838899  0.81105941  0.46240526     0.08370
H827        H  0.46088178  0.84995445  0.49572507     0.05900
H828        H  0.03183603  0.89200032  0.39964687     0.05740
C829        C  0.20541841  0.65061165  0.43379149     0.02780
C830        C  0.17889364  0.62743736  0.44805195    -0.13370
C831        C  0.15327621  0.62164954  0.42337363     0.00280
C832        C  0.15641042  0.63987071  0.38333987    -0.11890
C833        C  0.18142667  0.66571403  0.37687298     0.02770
C834        C  0.20614842  0.67044307  0.40044314    -0.11310
H835        H  0.17921153  0.61531282  0.47921251     0.08370
H836        H  0.13928424  0.63596202  0.35820705     0.05900
H837        H  0.22582129  0.69019884  0.39464278     0.05740
C838        C  0.33975905  0.83504656  0.54188943     0.02780
C839        C  0.36682295  0.85994669  0.53957901    -0.13370
C840        C  0.37179136  0.88123233  0.50477065     0.00280
C841        C  0.34989077  0.87714516  0.47213006    -0.11890
C842        C  0.32356474  0.85229542  0.47273769     0.02770
C843        C  0.31826433  0.83134867  0.50791197    -0.11310
H844        H  0.38392716  0.86248845  0.56393962     0.08370
H845        H  0.35358048  0.89325704  0.44494918     0.05900
H846        H  0.29771674  0.81200648  0.50812812     0.05740
O847        O  0.13331726  0.79401008  0.35936151    -0.86840
O848        O  0.11175430  0.82388804  0.09109122    -0.87000
O849        O  0.09342533  0.82813001  0.26411024    -0.88670
O850        O  0.08369315  0.75560864  0.19430096    -0.87430
O851        O  0.11422114  0.74204768  0.16788846    -0.87020
O852        O  0.12924481  0.87375997  0.27941581    -0.88390
O853        O  0.08376746  0.80594005  0.15977086    -0.86870
O854        O  0.09486826  0.77802439  0.30688156    -0.86450
Zr855      Zr  0.11231210  0.80283104  0.22635904     2.84310
O856        O  0.13344698  0.79600208  0.15721243    -1.08430
O857        O  0.14530882  0.83807726  0.28005305    -1.09160
C858        C  0.10688059  0.77830984  0.34941454     1.06270
C859        C  0.08837957  0.81510717  0.11441923     1.06210
C860        C  0.10341263  0.85251101  0.28460103     1.09200
C861        C  0.08917117  0.73853180  0.17203430     1.06980
H862        H  0.12698462  0.85289061  0.17416639     0.32530
O863        O  0.13904086  0.84595218  0.18473708    -1.29380
H864        H  0.13053294  0.76879652  0.27105295     0.32210
O865        O  0.14145841  0.78693637  0.25519377    -1.31060
O866        O  0.20242980  0.86752571  0.06766484    -0.86830
O867        O  0.22014364  0.83800946  0.34389945    -0.88330
O868        O  0.16745532  0.90744197  0.17002617    -0.86910
O869        O  0.15805602  0.76876284  0.09857014    -0.86960
O870        O  0.16920204  0.75523417  0.25197617    -0.86670
O871        O  0.18872583  0.89732988  0.32190170    -0.86470
O872        O  0.25270436  0.90663564  0.22995004    -0.86840
O873        O  0.24385756  0.83212764  0.16825043    -0.86310
O874        O  0.22261011  0.92128614  0.25362659    -0.87370
O875        O  0.20845376  0.78563001  0.15746342    -0.86530
O876        O  0.16102715  0.88149732  0.09870715    -0.86930
O877        O  0.16945276  0.85753863  0.36771908    -0.86650
O878        O  0.17573113  0.77919240  0.32654384    -0.86300
O879        O  0.15500912  0.80239998  0.05331887    -0.86710
O880        O  0.24065355  0.88169741  0.12139526    -0.87000
O881        O  0.24923073  0.85245261  0.27610495    -0.88340
Zr882      Zr  0.16028932  0.83848016  0.11579987     2.83100
Zr883      Zr  0.17392055  0.82238944  0.31148189     2.83500
Zr884      Zr  0.17305445  0.88104021  0.23842839     2.84090
Zr885      Zr  0.16378932  0.78141366  0.18577289     2.83360
Zr886      Zr  0.22412402  0.85793543  0.20249983     2.84220
O887        O  0.19611223  0.81540817  0.24329648    -1.08910
O888        O  0.19469911  0.87333750  0.17077862    -1.08410
C889        C  0.22916417  0.88167035  0.07849441     1.06240
C890        C  0.24382119  0.84589148  0.32312705     1.08860
C891        C  0.16318485  0.90287295  0.12213546     1.06420
C892        C  0.15552660  0.77923315  0.05715795     1.06780
C893        C  0.17372611  0.75863361  0.29965237     1.06360
C894        C  0.17645885  0.88388923  0.36129109     1.05910
C895        C  0.24752957  0.92426956  0.25128245     1.06340
C896        C  0.23431472  0.80665045  0.15312825     1.05850
H897        H  0.21538044  0.87686383  0.29387412     0.32530
O898        O  0.20158420  0.86433293  0.26934548    -1.30010
H899        H  0.20020163  0.82269719  0.11664482     0.32550
O900        O  0.19088112  0.82448948  0.14534983    -1.31400
C901        C  0.44491334  0.63641907  0.01383932     0.02780
C902        C  0.46650505  0.65669455  0.04672609    -0.13370
C903        C  0.48837606  0.65289244  0.06560027     0.00280
C904        C  0.48853828  0.62882240  0.05136719    -0.11890
C905        C  0.46720310  0.60802560  0.02053794     0.02770
C906        C  0.44572635  0.61204493  0.00083970    -0.11310
H907        H  0.46655783  0.67560571  0.05717467     0.08370
H908        H  0.00602450  0.62645247  0.06353959     0.05900
H909        H  0.43019919  0.59653880  0.97471589     0.05740
C910        C  0.49056716  0.51968126  0.98259908     0.01940
C911        C  0.01830968  0.52489150  0.97781203     0.01940
C912        C  0.02229936  0.00152767  0.97750363     0.01940
C913        C  0.99919111  0.97361192  0.98534113     0.01940
C914        C  0.47209386  0.96919099  0.99401575     0.01940
C915        C  0.46763162  0.99175404  0.98775962     0.01940
C916        C  0.14765892  0.97595006  0.98879481     0.02780
C917        C  0.17053531  0.99275673  0.95817848    -0.13370
C918        C  0.16989836  0.51222131  0.92598079     0.00280
C919        C  0.14640918  0.51538668  0.92434440    -0.11890
C920        C  0.12335208  0.99865607  0.95495831     0.02770
C921        C  0.12408124  0.97901258  0.98740407    -0.11310
H922        H  0.18934651  0.99130309  0.96041507     0.08370
H923        H  0.14640929  0.53128328  0.90057355     0.05900
H924        H  0.10643536  0.96629879  0.01159954     0.05740
C925        C  0.00337934  0.83268773  0.02634876     0.02780
C926        C  0.00520279  0.85885418  0.02484481    -0.13370
C927        C  0.49723757  0.86760927  0.98098301     0.00280
C928        C  0.48437513  0.84768202  0.94112706    -0.11890
C929        C  0.47910667  0.82014596  0.94616668     0.02770
C930        C  0.48897772  0.81295748  0.98838947    -0.11310
H931        H  0.01448822  0.87265448  0.05704719     0.08370
H932        H  0.47853646  0.85312372  0.90587943     0.05900
H933        H  0.48778227  0.79276676  0.98945971     0.05740
C934        C  0.14323329  0.68790394  0.93746211     0.02780
C935        C  0.16436487  0.68761413  0.90931646    -0.13370
C936        C  0.16158300  0.66207022  0.89374163     0.00280
C937        C  0.13691145  0.63648053  0.90501637    -0.11890
C938        C  0.11458937  0.63609439  0.93013827     0.02770
C939        C  0.11811696  0.66193940  0.94692850    -0.11310
H940        H  0.18348683  0.70730703  0.90055482     0.08370
H941        H  0.13502471  0.61674294  0.89391621     0.05900
H942        H  0.10157829  0.66175705  0.96830664     0.05740
C943        C  0.33828185  0.99735164  0.88350534     0.02780
C944        C  0.31218654  0.97788152  0.90530706    -0.13370
C945        C  0.31020649  0.95630527  0.93643694     0.00280
C946        C  0.33403803  0.95413697  0.94486824    -0.11890
C947        C  0.35998915  0.97376243  0.92449808     0.02770
C948        C  0.36190632  0.99509278  0.89371338    -0.11310
H949        H  0.29399068  0.98010561  0.89966695     0.08370
H950        H  0.33271935  0.93800172  0.96975664     0.05900
H951        H  0.38223493  0.51074652  0.87893870     0.05740
C952        C  0.36208437  0.80807305  0.01334571     0.02780
C953        C  0.33668236  0.80038307  0.03741891    -0.13370
C954        C  0.33399900  0.82048234  0.06464318     0.00280
C955        C  0.35697915  0.84862062  0.06744706    -0.11890
C956        C  0.38231873  0.85639228  0.04350204     0.02770
C957        C  0.38511955  0.83582716  0.01865694    -0.11310
H958        H  0.31821279  0.77948311  0.03153816     0.08370
H959        H  0.35446691  0.86474762  0.08521469     0.05900
H960        H  0.40459598  0.84219401  0.99937549     0.05740
C961        C  0.39166818  0.97383427  0.99177066    -0.26670
C962        C  0.38601672  0.97450414  0.94028557    -0.14740
C963        C  0.40642157  0.97869443  0.90500724     0.35890
C964        C  0.43297840  0.98467102  0.92213916    -0.26110
C965        C  0.43909128  0.98548938  0.97353934    -0.15350
C966        C  0.41805754  0.97890573  0.00878820     0.36980
N967        N  0.42341088  0.97702857  0.06116991    -0.89600
H968        H  0.37583805  0.97032387  0.01883370     0.18090
H969        H  0.44903214  0.98841948  0.89534833     0.18080
N970        N  0.40008290  0.97698900  0.85209919    -0.88630
H971        H  0.40526878  0.97100338  0.08173952     0.35460
H972        H  0.43874423  0.99717207  0.07397877     0.40560
H973        H  0.38387951  0.95625382  0.84392669     0.40180
H974        H  0.41751996  0.98071470  0.83134784     0.35060
C975        C  0.05156243  0.56029038  0.91742628    -0.26670
C976        C  0.04247402  0.55406100  0.96704655    -0.14740
C977        C  0.05643659  0.57553809  0.00424537     0.35890
C978        C  0.07923122  0.60220127  0.99081082    -0.26110
C979        C  0.08841094  0.60839581  0.94109759    -0.15350
C980        C  0.07363672  0.58715730  0.90369950     0.36980
N981        N  0.07946394  0.59226456  0.85120289    -0.89600
H982        H  0.04076574  0.54417647  0.88855917     0.18090
H983        H  0.09037938  0.61804814  0.01994103     0.18080
N984        N  0.04893473  0.57096861  0.05613523    -0.88630
H985        H  0.08929854  0.58140830  0.84004540     0.35460
H986        H  0.09295974  0.61366084  0.84371194     0.40560
H987        H  0.03229422  0.55043951  0.06223947     0.40180
H988        H  0.04181953  0.58448893  0.06580689     0.35060
C989        C  0.05600567  0.99820976  0.92292052    -0.26670
C990        C  0.05067178  0.00594229  0.96954961    -0.14740
C991        C  0.07071882  0.01390091  0.00941908     0.35890
C992        C  0.09500528  0.01279579  0.00208901    -0.26110
C993        C  0.09940372  0.00313342  0.95666670    -0.15350
C994        C  0.07988447  0.99614172  0.91608854     0.36980
N995        N  0.08272779  0.98567980  0.86858330    -0.89600
H996        H  0.04051227  0.99197573  0.89253605     0.18090
H997        H  0.10990138  0.01804750  0.03321275     0.18080
N998        N  0.06604530  0.02059109  0.05896773    -0.88630
H999        H  0.06532625  0.96516443  0.86368023     0.35460
H1000       H  0.10060342  0.98395318  0.86791631     0.40560
H1001       H  0.04595051  0.01763480  0.06224302     0.40180
H1002       H  0.08082305  0.04195814  0.06592696     0.35060
C1003       C  0.48408484  0.90143636  0.94467103    -0.26670
C1004       C  0.50175553  0.89687936  0.97718164    -0.14740
C1005       C  0.02244190  0.92042637  0.00656820     0.35890
C1006       C  0.02049878  0.94457236  0.01078483    -0.26110
C1007       C  0.00213934  0.94837104  0.97947378    -0.15350
C1008       C  0.48598336  0.92765781  0.94263915     0.36980
N1009       N  0.47128323  0.93327803  0.90365728    -0.89600
H1010       H  0.46841758  0.88472991  0.92064008     0.18090
H1011       H  0.03416956  0.96084774  0.03760808     0.18080
N1012       N  0.04728479  0.92212810  0.02817323    -0.88630
H1013       H  0.46034132  0.91588486  0.87940083     0.35460
H1014       H  0.48649467  0.94991362  0.88232625     0.40560
H1015       H  0.05106934  0.90712679  0.01270294     0.40180
H1016       H  0.04510349  0.91978225  0.06700921     0.35060
C1017       C  0.42625950  0.92439055  0.97378113    -0.26670
C1018       C  0.44809146  0.94076953  0.00872523    -0.14740
C1019       C  0.44678548  0.93026751  0.05758416     0.35890
C1020       C  0.42440876  0.90297470  0.06953260    -0.26110
C1021       C  0.40340737  0.88632441  0.03359856    -0.15350
C1022       C  0.40400663  0.89732538  0.98565145     0.36980
N1023       N  0.38228183  0.88053043  0.94878441    -0.89600
H1024       H  0.42684031  0.93252721  0.93664909     0.18090
H1025       H  0.42369150  0.89440674  0.10639574     0.18080
N1026       N  0.46777570  0.94758553  0.09507811    -0.88630
H1027       H  0.38600441  0.89150821  0.91512812     0.35460
H1028       H  0.36315635  0.87726291  0.96206131     0.40560
H1029       H  0.48715001  0.95051414  0.08425497     0.40180
H1030       H  0.46318592  0.93712613  0.12940780     0.35060
C1031       C  0.98105929  0.54877018  0.03879128    -0.26670
C1032       C  0.48495504  0.54295759  0.98960293    -0.14740
C1033       C  0.47935125  0.55608143  0.94933686     0.35890
C1034       C  0.47170012  0.57621176  0.95964006    -0.26110
C1035       C  0.46902183  0.58280415  0.00926855    -0.15350
C1036       C  0.47272522  0.56809815  0.04906897     0.36980
N1037       N  0.96842528  0.57329728  0.09999676    -0.89600
H1038       H  0.98423499  0.53780139  0.06948966     0.18090
H1039       H  0.46875645  0.58743400  0.92911192     0.18080
N1040       N  0.48080786  0.54853357  0.89848259    -0.88630
H1041       H  0.97221862  0.56094902  0.12486544     0.35460
H1042       H  0.94708248  0.56683620  0.10304608     0.40560
H1043       H  0.50189953  0.55546706  0.89144912     0.40180
H1044       H  0.47491101  0.55924959  0.87350970     0.35060
C1045       C  0.12686457  0.72160988  0.95813373    -0.26670
C1046       C  0.14831119  0.71504119  0.95995594    -0.14740
C1047       C  0.17406091  0.73389048  0.98565648     0.35890
C1048       C  0.17719256  0.75779704  0.01023525    -0.26110
C1049       C  0.15489741  0.76294876  0.01236432    -0.15350
C1050       C  0.12989801  0.74540462  0.98360037     0.36980
N1051       N  0.10676225  0.75021694  0.98128144    -0.89600
H1052       H  0.10725855  0.70774365  0.93771927     0.18090
H1053       H  0.19627767  0.77100403  0.03256170     0.18080
N1054       N  0.19623318  0.72766603  0.99017565    -0.88630
H1055       H  0.10298111  0.75249650  0.94350090     0.35460
H1056       H  0.11251116  0.76946578  0.99831106     0.40560
H1057       H  0.18852851  0.70926881  0.01128019     0.40180
H1058       H  0.21371800  0.74364002  0.01016364     0.35060
C1059       C  0.26744886  0.82226661  0.08434586    -0.26670
C1060       C  0.25506721  0.80355317  0.12441177    -0.14740
C1061       C  0.26702120  0.78788735  0.14160968     0.35890
C1062       C  0.29228017  0.79262668  0.12008505    -0.26110
C1063       C  0.30585614  0.81323290  0.08291450    -0.15350
C1064       C  0.29268376  0.82733874  0.06355740     0.36980
N1065       N  0.30549315  0.84740131  0.02380059    -0.89600
H1066       H  0.25813766  0.83424870  0.07111440     0.18090
H1067       H  0.30216980  0.78134584  0.13402729     0.18080
N1068       N  0.25426012  0.76829159  0.18194294    -0.88630
H1069       H  0.29353866  0.85653179  0.01470407     0.35460
H1070       H  0.30527929  0.83632615  0.99191852     0.40560
H1071       H  0.25567952  0.77983448  0.21400118     0.40180
H1072       H  0.26568985  0.75847715  0.19007960     0.35060
C1073       C  0.03845899  0.80373906  0.10911566    -0.26670
C1074       C  0.06596292  0.81823925  0.08964021    -0.14740
C1075       C  0.07244368  0.83847047  0.05163063     0.35890
C1076       C  0.05173246  0.84398379  0.03507312    -0.26110
C1077       C  0.02457169  0.82969542  0.05471150    -0.15350
C1078       C  0.01759713  0.80903995  0.09175778     0.36980
N1079       N  0.98991533  0.79344101  0.11286497    -0.89600
H1080       H  0.03311083  0.78829522  0.13842543     0.18090
H1081       H  0.05656409  0.85910490  0.00529717     0.18080
N1082       N  0.10014345  0.85402390  0.03070084    -0.88630
H1083       H  0.98099306  0.77223755  0.10246666     0.35460
H1084       H  0.47661064  0.80001161  0.09833319     0.40560
H1085       H  0.11344068  0.86819370  0.05848325     0.40180
H1086       H  0.10056574  0.86641413  0.00070146     0.35060
C1087       C  0.02829440  0.70249741  0.07837166    -0.26670
C1088       C  0.01303317  0.67479618  0.09611827    -0.14740
C1089       C  0.02352146  0.66763171  0.13916043     0.35890
C1090       C  0.04941497  0.68811265  0.16230810    -0.26110
C1091       C  0.06470168  0.71562805  0.14378834    -0.15350
C1092       C  0.05377125  0.72295651  0.10197811     0.36980
N1093       N  0.06845995  0.75155885  0.08438978    -0.89600
H1094       H  0.02058897  0.70808245  0.04533526     0.18090
H1095       H  0.05721237  0.68287743  0.19564586     0.18080
N1096       N  0.00764698  0.63966413  0.15946433    -0.88630
H1097       H  0.05814542  0.75355635  0.05279111     0.35460
H1098       H  0.08847844  0.75643360  0.07327024     0.40560
H1099       H  0.48844586  0.63665300  0.17175332     0.40180
H1100       H  0.01812645  0.63781988  0.19096317     0.35060
C1101       C  0.26260106  0.92948549  0.04760049    -0.26670
C1102       C  0.24798496  0.90020437  0.03900270    -0.14740
C1103       C  0.25114774  0.88966617  0.99271581     0.35890
C1104       C  0.26981361  0.90877420  0.95736190    -0.26110
C1105       C  0.28517382  0.93801827  0.96686626    -0.15350
C1106       C  0.28104927  0.94839304  0.01216788     0.36980
N1107       N  0.29637387  0.97798035  0.02410128    -0.89600
H1108       H  0.25994015  0.93772166  0.08255852     0.18090
H1109       H  0.27344442  0.90064299  0.92321671     0.18080
N1110       N  0.23665543  0.85994487  0.98087797    -0.88630
H1111       H  0.29176601  0.98842314  0.99631647     0.35460
H1112       H  0.31804330  0.98544257  0.02373676     0.40560
H1113       H  0.22427510  0.84759552  0.01033956     0.40180
H1114       H  0.25197077  0.85455672  0.97581105     0.35060
C1115       C  0.16242424  0.92116028  0.03782253    -0.26670
C1116       C  0.15971977  0.92274488  0.08993717    -0.14740
C1117       C  0.15138259  0.94113485  0.10848470     0.35890
C1118       C  0.14649025  0.95779216  0.07484683    -0.26110
C1119       C  0.14946705  0.95606732  0.02304829    -0.15350
C1120       C  0.15679849  0.93707051  0.00449671     0.36980
N1121       N  0.15821783  0.93364304  0.95156450    -0.89600
H1122       H  0.16847792  0.90703689  0.02228588     0.18090
H1123       H  0.14085721  0.97246393  0.08928232     0.18080
N1124       N  0.14744393  0.94271415  0.16101311    -0.88630
H1125       H  0.14395500  0.91246048  0.94211777     0.35460
H1126       H  0.17860309  0.93816463  0.94374672     0.40560
H1127       H  0.12656329  0.93746220  0.16603157     0.40180
H1128       H  0.16085506  0.96364047  0.17294032     0.35060
C1129       C  0.30137963  0.83788148  0.38809052    -0.26670
C1130       C  0.30201280  0.84904675  0.43567502    -0.14740
C1131       C  0.28483446  0.86039660  0.44469094     0.35890
C1132       C  0.26739151  0.86016405  0.40595406    -0.26110
C1133       C  0.26609426  0.84850760  0.35835473    -0.15350
C1134       C  0.28332832  0.83701508  0.34939295     0.36980
N1135       N  0.28225236  0.82309938  0.30320703    -0.89600
H1136       H  0.31495599  0.82957223  0.38108919     0.18090
H1137       H  0.25426098  0.86893194  0.41350817     0.18080
N1138       N  0.28473373  0.87263842  0.49221532    -0.88630
H1139       H  0.30157208  0.83558007  0.28556435     0.35460
H1140       H  0.26634453  0.82090133  0.27864077     0.40560
H1141       H  0.29835282  0.87163396  0.51862619     0.40180
H1142       H  0.26436654  0.86053016  0.50639697     0.35060
C1143       C  0.15923556  0.69452547  0.37385211    -0.26670
C1144       C  0.17994052  0.68957739  0.35516021    -0.14740
C1145       C  0.19936608  0.70853472  0.32003239     0.35890
C1146       C  0.19789387  0.73206025  0.30570288    -0.26110
C1147       C  0.17693231  0.73666567  0.32396496    -0.15350
C1148       C  0.15691898  0.71725286  0.35770169     0.36980
N1149       N  0.13349915  0.71917586  0.37502585    -0.89600
H1150       H  0.14434547  0.68031400  0.40112452     0.18090
H1151       H  0.21253669  0.74628979  0.27813856     0.18080
N1152       N  0.21963761  0.70388335  0.29594062    -0.88630
H1153       H  0.11484872  0.70094781  0.36287859     0.35460
H1154       H  0.13297439  0.73605643  0.35895366     0.40560
H1155       H  0.21662763  0.68410260  0.30421713     0.40180
H1156       H  0.23979010  0.71928015  0.30925626     0.35060
C1157       C  0.06865796  0.87723703  0.37809973    -0.26670
C1158       C  0.04429602  0.85125174  0.39141852    -0.14740
C1159       C  0.03985637  0.82639452  0.36822829     0.35890
C1160       C  0.05957255  0.82779574  0.33459322    -0.26110
C1161       C  0.08329185  0.85372791  0.31979072    -0.15350
C1162       C  0.08718240  0.87881476  0.34075585     0.36980
N1163       N  0.10907810  0.90573556  0.32298098    -0.89600
H1164       H  0.07312740  0.89670423  0.39586329     0.18090
H1165       H  0.05563010  0.80791463  0.31935938     0.18080
N1166       N  0.01480213  0.79956861  0.37676373    -0.88630
H1167       H  0.10834616  0.92205331  0.34111508     0.35460
H1168       H  0.10471258  0.90696087  0.28504101     0.40560
H1169       H  0.02090866  0.78579231  0.39059773     0.40180
H1170       H  0.00419290  0.79152078  0.34234252     0.35060
C1171       C  0.28049514  0.97559758  0.27766614    -0.26670
C1172       C  0.27169918  0.94688929  0.28158393    -0.14740
C1173       C  0.28626654  0.93928155  0.31655336     0.35890
C1174       C  0.30821238  0.95945048  0.34637418    -0.26110
C1175       C  0.31745054  0.98799105  0.34255184    -0.15350
C1176       C  0.30374217  0.99642984  0.30684940     0.36980
N1177       N  0.31300369  0.52560995  0.29849996    -0.89600
H1178       H  0.26982640  0.98194759  0.25104185     0.18090
H1179       H  0.31771933  0.95236894  0.37417044     0.18080
N1180       N  0.27861779  0.91080105  0.32476643    -0.88630
H1181       H  0.31845856  0.52983966  0.26082707     0.35460
H1182       H  0.33154550  0.53898190  0.31898005     0.40560
H1183       H  0.28252959  0.90305267  0.29229136     0.40180
H1184       H  0.25731848  0.89926656  0.33398720     0.35060
C1185       C  0.16690149  0.92281846  0.37147592    -0.26670
C1186       C  0.16890161  0.90100638  0.39553762    -0.14740
C1187       C  0.16465056  0.89849439  0.44824459     0.35890
C1188       C  0.15846915  0.91727956  0.47371180    -0.26110
C1189       C  0.15683259  0.93896409  0.44854556    -0.15350
C1190       C  0.16195916  0.94193387  0.39666275     0.36980
N1191       N  0.16270507  0.96428763  0.36762727    -0.89600
H1192       H  0.16955680  0.92570945  0.33134799     0.18090
H1193       H  0.15520371  0.91508238  0.51377323     0.18080
N1194       N  0.16748819  0.87834819  0.47769717    -0.88630
H1195       H  0.18284120  0.97608639  0.35241064     0.35460
H1196       H  0.16038414  0.97848227  0.38951396     0.40560
H1197       H  0.17381450  0.86701263  0.45616779     0.40180
H1198       H  0.14755640  0.86386276  0.49157870     0.35060
C1199       C  0.08759487  0.72927926  0.46074201    -0.26670
C1200       C  0.05843077  0.71281490  0.45418675    -0.14740
C1201       C  0.04452324  0.71899486  0.41602742     0.35890
C1202       C  0.06058633  0.74133409  0.38334166    -0.26110
C1203       C  0.09015776  0.75777858  0.38888172    -0.15350
C1204       C  0.10371419  0.75215272  0.42956231     0.36980
N1205       N  0.13380349  0.76912678  0.43892106    -0.89600
H1206       H  0.09775325  0.72455840  0.49117815     0.18090
H1207       H  0.05000409  0.74555809  0.35301454     0.18080
N1208       N  0.01421658  0.70237134  0.41048828    -0.88630
H1209       H  0.14024464  0.76059147  0.46749889     0.35460
H1210       H  0.13825709  0.78881106  0.45219494     0.40560
H1211       H  0.00864819  0.68180143  0.40077633     0.40180
H1212       H  0.00726344  0.70982532  0.38087990     0.35060
C1213       C  0.41140734  0.91090890  0.44926785    -0.26670
C1214       C  0.40004800  0.90692058  0.49734071    -0.14740
C1215       C  0.41375918  0.92911291  0.53320626     0.35890
C1216       C  0.43882736  0.95403800  0.52032752    -0.26110
C1217       C  0.45042565  0.95771208  0.47246578    -0.15350
C1218       C  0.43604238  0.93589969  0.43611098     0.36980
N1219       N  0.44516058  0.93846431  0.38525864    -0.89600
H1220       H  0.40056179  0.89443367  0.42099445     0.18090
H1221       H  0.44974219  0.97059266  0.54841685     0.18080
N1222       N  0.40287665  0.92749001  0.58241787    -0.88630
H1223       H  0.44901802  0.92222278  0.37816969     0.35460
H1224       H  0.46403729  0.95748399  0.37961551     0.40560
H1225       H  0.38393514  0.90847218  0.58770969     0.40180
H1226       H  0.39814381  0.94341587  0.58531366     0.35060
C1227       C  0.00889606  0.60266036  0.45954995    -0.26670
C1228       C  0.01992979  0.61423146  0.50693960    -0.14740
C1229       C  0.02727630  0.59960140  0.54111142     0.35890
C1230       C  0.02440223  0.57386987  0.52598914    -0.26110
C1231       C  0.01423108  0.56260351  0.47755508    -0.15350
C1232       C  0.00591324  0.57723973  0.44428650     0.36980
N1233       N  0.99643219  0.56840988  0.39351637    -0.89600
H1234       H  0.00314313  0.61397833  0.43340440     0.18090
H1235       H  0.53005871  0.56246914  0.55205320     0.18080
N1236       N  0.03769955  0.61096775  0.59059593    -0.88630
H1237       H  0.97540914  0.56320890  0.39000432     0.35460
H1238       H  0.99759929  0.55090351  0.38407795     0.40560
H1239       H  0.05700132  0.62995092  0.58684120     0.40180
H1240       H  0.54196533  0.59747530  0.61121993     0.35060
C1241       C  0.09995051  0.59939167  0.41740554    -0.26670
C1242       C  0.12331337  0.59909404  0.43938262    -0.14740
C1243       C  0.11650346  0.57756794  0.47564820     0.35890
C1244       C  0.08786205  0.55898618  0.48877848    -0.26110
C1245       C  0.06515673  0.55698750  0.46010304    -0.15350
C1246       C  0.07204174  0.57739642  0.42294362     0.36980
N1247       N  0.05124310  0.57515417  0.38758090    -0.89600
H1248       H  0.10225751  0.61599085  0.39338039     0.18090
H1249       H  0.08329622  0.54440608  0.51917432     0.18080
N1250       N  0.13785785  0.57329371  0.49768437    -0.88630
H1251       H  0.05695635  0.57226490  0.35196564     0.35460
H1252       H  0.05215212  0.59449733  0.38737526     0.40560
H1253       H  0.14539271  0.56621072  0.46905463     0.40180
H1254       H  0.12921549  0.55714889  0.52413108     0.35060
C1255       C  0.44568116  0.51876162  0.49508577    -0.26670
C1256       C  0.45725565  0.51263099  0.45442541    -0.14740
C1257       C  0.44300992  0.00650494  0.40733186     0.35890
C1258       C  0.42017479  0.51069186  0.40048605    -0.26110
C1259       C  0.40822720  0.51701841  0.44087918    -0.15350
C1260       C  0.42079857  0.51963513  0.48963234     0.36980
N1261       N  0.40768929  0.52020947  0.53505789    -0.89600
H1262       H  0.45531977  0.52150057  0.53206699     0.18090
H1263       H  0.41155150  0.00847942  0.36290770     0.18080
N1264       N  0.45081988  0.99485406  0.36697684    -0.88630
H1265       H  0.38565774  0.50780739  0.53137589     0.35460
H1266       H  0.41450024  0.54108542  0.54473344     0.40560
H1267       H  0.47154485  0.00898915  0.35662598     0.40180
H1268       H  0.43796896  0.99114840  0.33513261     0.35060
C1269       C  0.09137918  0.49195352  0.42974254    -0.26670
C1270       C  0.09493187  0.48106674  0.47520575    -0.14740
C1271       C  0.07757569  0.97817073  0.51585105     0.35890
C1272       C  0.05860744  0.98760295  0.51102092    -0.26110
C1273       C  0.05460923  0.49816064  0.46576352    -0.15350
C1274       C  0.07118840  0.50018087  0.42424227     0.36980
N1275       N  0.06831386  0.51054761  0.37642342    -0.89600
H1276       H  0.10505027  0.49496870  0.39880264     0.18090
H1277       H  0.04673110  0.98666033  0.54334622     0.18080
N1278       N  0.07911078  0.96641174  0.56314705    -0.88630
H1279       H  0.08729146  0.52947122  0.36999261     0.35460
H1280       H  0.05240876  0.51536202  0.37647309     0.40560
H1281       H  0.09275087  0.95869519  0.56193452     0.40180
H1282       H  0.05905781  0.94879210  0.56951853     0.35060
C1283       C  0.49006526  0.90822398  0.49650749    -0.26670
C1284       C  0.49483521  0.89963133  0.45000751    -0.14740
C1285       C  0.99998795  0.91678195  0.40764177     0.35890
C1286       C  0.00302833  0.94318144  0.41355654    -0.26110
C1287       C  0.49858415  0.95173627  0.45999727    -0.15350
C1288       C  0.49109160  0.93382073  0.50163793     0.36980
N1289       N  0.48428135  0.94143716  0.54852716    -0.89600
H1290       H  0.48617390  0.89529669  0.52936535     0.18090
H1291       H  0.00826716  0.95690603  0.38141833     0.18080
N1292       N  0.00156203  0.90732566  0.35850690    -0.88630
H1293       H  0.47893785  0.92564153  0.57510580     0.35460
H1294       H  0.50207806  0.95966424  0.56271932     0.40560
H1295       H  0.02121514  0.92203574  0.34386080     0.40180
H1296       H  0.98587216  0.90720269  0.33576046     0.35060
C1297       C  0.21934288  0.67617952  0.80151771    -0.26670
C1298       C  0.23214628  0.66272512  0.82505267    -0.14740
C1299       C  0.22090626  0.64827814  0.87044971     0.35890
C1300       C  0.19778022  0.64829748  0.89160303    -0.26110
C1301       C  0.18525392  0.66203090  0.86825500    -0.15350
C1302       C  0.19605272  0.67587485  0.82213885     0.36980
N1303       N  0.18345880  0.68893738  0.79410571    -0.89600
H1304       H  0.22744257  0.68705404  0.76641620     0.18090
H1305       H  0.18947076  0.63757179  0.92674980     0.18080
N1306       N  0.23258786  0.63320172  0.89449221    -0.88630
H1307       H  0.19777724  0.71075509  0.79489460     0.35460
H1308       H  0.16471801  0.68525252  0.80972640     0.40560
H1309       H  0.22877702  0.61659806  0.87054018     0.40180
H1310       H  0.22206112  0.62394039  0.92765440     0.35060
C1311       C  0.34904894  0.74242382  0.94378617    -0.26670
C1312       C  0.35913229  0.75329310  0.89572594    -0.14740
C1313       C  0.37341101  0.78287641  0.88888275     0.35890
C1314       C  0.37443341  0.80019416  0.92816380    -0.26110
C1315       C  0.36299158  0.78906472  0.97519424    -0.15350
C1316       C  0.35122880  0.76001143  0.98364721     0.36980
N1317       N  0.34138460  0.74845532  0.03250274    -0.89600
H1318       H  0.33906877  0.71997746  0.95047478     0.18090
H1319       H  0.38365937  0.82255240  0.92139561     0.18080
N1320       N  0.38648847  0.79537064  0.84216399    -0.88630
H1321       H  0.33320932  0.72667285  0.03239883     0.35460
H1322       H  0.35892603  0.75748177  0.05711538     0.40560
H1323       H  0.40361143  0.79248236  0.83834724     0.40180
H1324       H  0.39505242  0.81721875  0.84299562     0.35060
C1325       C  0.44389846  0.67738925  0.57241371    -0.26670
C1326       C  0.44327653  0.67806124  0.62490964    -0.14740
C1327       C  0.46558727  0.67891558  0.65364399     0.35890
C1328       C  0.48593079  0.67570379  0.62923881    -0.26110
C1329       C  0.48462537  0.67225339  0.57723953    -0.15350
C1330       C  0.46351510  0.67330186  0.54821696     0.36980
N1331       N  0.46091508  0.66974676  0.49444967    -0.89600
H1332       H  0.42777152  0.67798113  0.54961949     0.18090
H1333       H  0.00302359  0.67613468  0.65067000     0.18080
N1334       N  0.46773695  0.68323937  0.70710998    -0.88630
H1335       H  0.44078864  0.65242314  0.48587307     0.35460
H1336       H  0.47496368  0.66438035  0.48035571     0.40560
H1337       H  0.47154448  0.70354258  0.71382463     0.40180
H1338       H  0.48518034  0.68293683  0.72217752     0.35060
C1339       C  0.46530995  0.80971453  0.56687837    -0.26670
C1340       C  0.46311763  0.80471037  0.51496396    -0.14740
C1341       C  0.43967033  0.77992115  0.49493702     0.35890
C1342       C  0.41903643  0.76034542  0.52740845    -0.26110
C1343       C  0.42106146  0.76513850  0.57971343    -0.15350
C1344       C  0.44476251  0.79013222  0.59954454     0.36980
N1345       N  0.44824541  0.79538696  0.65268433    -0.89600
H1346       H  0.48305745  0.82923551  0.58185698     0.18090
H1347       H  0.40101759  0.74136943  0.51151720     0.18080
N1348       N  0.43660976  0.77504261  0.44161184    -0.88630
H1349       H  0.46658720  0.81481996  0.66094915     0.35460
H1350       H  0.45131155  0.77989984  0.66858605     0.40560
H1351       H  0.43383279  0.79064355  0.42529571     0.40180
H1352       H  0.41829296  0.75567512  0.43289407     0.35060
C1353       C  0.42690619  0.75325725  0.87734710    -0.26670
C1354       C  0.44099907  0.75608815  0.83269347    -0.14740
C1355       C  0.46741550  0.78071319  0.82447046     0.35890
C1356       C  0.47945211  0.80183993  0.86157574    -0.26110
C1357       C  0.46517704  0.79884356  0.90620790    -0.15350
C1358       C  0.43872198  0.77419304  0.91423216     0.36980
N1359       N  0.42303719  0.77030038  0.95875747    -0.89600
H1360       H  0.40594068  0.73499937  0.88280912     0.18090
H1361       H  0.49998871  0.82059682  0.85570600     0.18080
N1362       N  0.48220761  0.78476294  0.77889519    -0.88630
H1363       H  0.42025188  0.78746853  0.96281467     0.35460
H1364       H  0.43465423  0.76986621  0.98973791     0.40560
H1365       H  0.46945269  0.78444868  0.74924002     0.40180
H1366       H  0.48519370  0.76775754  0.77416616     0.35060
C1367       C  0.37702549  0.62693646  0.94973254    -0.26670
C1368       C  0.38726339  0.65386622  0.92916314    -0.14740
C1369       C  0.41529512  0.67530683  0.94165051     0.35890
C1370       C  0.43289127  0.66946922  0.97137793    -0.26110
C1371       C  0.42354460  0.64219747  0.98923822    -0.15350
C1372       C  0.39471814  0.62092753  0.97997237     0.36980
N1373       N  0.38366456  0.59312929  0.00006923    -0.89600
H1374       H  0.35584519  0.61003601  0.93931150     0.18090
H1375       H  0.45471942  0.68619409  0.97758519     0.18080
N1376       N  0.42672436  0.70292166  0.92120203    -0.88630
H1377       H  0.36237167  0.57994418  0.98949473     0.35460
H1378       H  0.38441752  0.59496514  0.03915725     0.40560
H1379       H  0.44419713  0.70741267  0.89980278     0.40180
H1380       H  0.43388477  0.71740982  0.95104977     0.35060
C1381       C  0.34610751  0.79508612  0.56184471    -0.26670
C1382       C  0.33455028  0.81132015  0.57537618    -0.14740
C1383       C  0.31696184  0.80326803  0.61786369     0.35890
C1384       C  0.31166415  0.77928272  0.64558075    -0.26110
C1385       C  0.32325067  0.76301243  0.63167312    -0.15350
C1386       C  0.34048741  0.77101245  0.58869919     0.36980
N1387       N  0.35292885  0.75537934  0.57127815    -0.89600
H1388       H  0.35926914  0.80085997  0.52913801     0.18090
H1389       H  0.29904854  0.77378975  0.67892816     0.18080
N1390       N  0.30459332  0.81908004  0.63450593    -0.88630
H1391       H  0.34631440  0.74936586  0.53399842     0.35460
H1392       H  0.34544924  0.73655252  0.59070667     0.40560
H1393       H  0.31036965  0.83660653  0.61198428     0.40180
H1394       H  0.31289573  0.82700350  0.67039037     0.35060
C1395       C  0.24877092  0.68330519  0.48270361    -0.26670
C1396       C  0.23237172  0.65695459  0.45876578    -0.14740
C1397       C  0.24222868  0.63785641  0.45930546     0.35890
C1398       C  0.26675985  0.64467413  0.48768534    -0.26110
C1399       C  0.28172615  0.67017046  0.51488872    -0.15350
C1400       C  0.27315041  0.68999908  0.51048182     0.36980
N1401       N  0.28785917  0.71610914  0.53800676    -0.89600
H1402       H  0.24178208  0.69832588  0.48221638     0.18090
H1403       H  0.27285272  0.62904806  0.49158211     0.18080
N1404       N  0.22794173  0.61146644  0.43217209    -0.88630
H1405       H  0.27365953  0.71678840  0.56242106     0.35460
H1406       H  0.29424874  0.73259442  0.51251240     0.40560
H1407       H  0.21168848  0.60968340  0.40890755     0.40180
H1408       H  0.21868252  0.59532269  0.45850209     0.35060
C1409       C  0.33102778  0.53992004  0.77890065    -0.26670
C1410       C  0.35249966  0.56783183  0.79184078    -0.14740
C1411       C  0.37015132  0.57211201  0.83422505     0.35890
C1412       C  0.36464661  0.54886150  0.86405532    -0.26110
C1413       C  0.34224283  0.52132598  0.85226121    -0.15350
C1414       C  0.32576430  0.51686398  0.80866260     0.36980
N1415       N  0.30379219  0.48890124  0.79420065    -0.89600
H1416       H  0.31744398  0.53592355  0.74621351     0.18090
H1417       H  0.37776266  0.55227826  0.89719414     0.18080
N1418       N  0.39285303  0.59998827  0.84812488    -0.88630
H1419       H  0.30812132  0.48466930  0.75837960     0.35460
H1420       H  0.28470610  0.98853367  0.79199082     0.40560
H1421       H  0.40794911  0.60678822  0.82015705     0.40180
H1422       H  0.40299940  0.59947158  0.88126843     0.35060
C1423       C  0.22548658  0.54495119  0.82672160    -0.26670
C1424       C  0.24674152  0.56903162  0.85269055    -0.14740
C1425       C  0.24275343  0.57320899  0.90356845     0.35890
C1426       C  0.21698415  0.55450854  0.92568527    -0.26110
C1427       C  0.19550185  0.53139715  0.89888663    -0.15350
C1428       C  0.19988732  0.52601459  0.84923223     0.36980
N1429       N  0.17911324  0.50170691  0.82075313    -0.89600
H1430       H  0.22829837  0.54117129  0.78803744     0.18090
H1431       H  0.21361953  0.55780395  0.96437205     0.18080
N1432       N  0.26468014  0.59644018  0.93261355    -0.88630
H1433       H  0.17273611  0.50898636  0.79002977     0.35460
H1434       H  0.16100762  0.98895652  0.84132548     0.40560
H1435       H  0.28163610  0.59318905  0.93633429     0.40180
H1436       H  0.25796373  0.59665343  0.96889502     0.35060
C1437       C  0.22945642  0.57199142  0.57030022    -0.26670
C1438       C  0.22254429  0.57398570  0.61995642    -0.14740
C1439       C  0.19785247  0.55122642  0.64019385     0.35890
C1440       C  0.18029087  0.52721957  0.60998906    -0.26110
C1441       C  0.18760842  0.52492900  0.56070990    -0.15350
C1442       C  0.21239145  0.54766295  0.54059315     0.36980
N1443       N  0.21988875  0.54615454  0.48988729    -0.89600
H1444       H  0.24908291  0.58899044  0.55550366     0.18090
H1445       H  0.16081707  0.51007162  0.62494117     0.18080
N1446       N  0.19082794  0.55252693  0.69132478    -0.88830
H1447       H  0.23845688  0.56484713  0.48056122     0.35460
H1448       H  0.22456502  0.53016305  0.48816767     0.40560
H1449       H  0.20645630  0.55282457  0.71448251     0.40180
H1450       H  0.17177401  0.53424336  0.70024480     0.35060
C1451       C  0.36660064  0.58002055  0.50575491    -0.26670
C1452       C  0.34485105  0.55338247  0.48941145    -0.14740
C1453       C  0.31760731  0.54188303  0.50990377     0.35890
C1454       C  0.31261438  0.55769720  0.54501099    -0.26110
C1455       C  0.33462145  0.58442334  0.56088208    -0.15350
C1456       C  0.36207133  0.59504262  0.54251753     0.36980
N1457       N  0.38560376  0.62077046  0.56258036    -0.89600
H1458       H  0.38751387  0.58908461  0.49035685     0.18090
H1459       H  0.29160703  0.54912365  0.55974316     0.18080
N1460       N  0.29521082  0.51396140  0.49632872    -0.88630
H1461       H  0.40427793  0.62474188  0.54615348     0.35460
H1462       H  0.38774578  0.61749282  0.60063088     0.40560
H1463       H  0.27834473  0.51534549  0.48140249     0.40180
H1464       H  0.28837223  0.50197490  0.52898850     0.35060
O1465       O  0.84192429  0.12830759  0.58406149    -0.86840
O1466       O  0.78446374  0.11602600  0.84432829    -0.87000
O1467       O  0.82806850  0.08475289  0.74527333    -0.88670
O1468       O  0.76137336  0.08708517  0.67188425    -0.87430
O1469       O  0.75016596  0.12101051  0.65583975    -0.87020
O1470       O  0.87319244  0.11734382  0.77162365    -0.88390
O1471       O  0.77555931  0.08456386  0.78068095    -0.86870
O1472       O  0.81602417  0.09099917  0.63644165    -0.86450
Zr1473     Zr  0.80718236  0.11026663  0.71228347     2.84310
O1474       O  0.79034107  0.13704652  0.74855487    -1.08430
O1475       O  0.85338556  0.14000681  0.68577410    -1.09160
C1476       C  0.82982676  0.10205896  0.59582403     1.06270
C1477       C  0.77089633  0.09113064  0.82444069     1.06210
C1478       C  0.85182391  0.09161527  0.76686084     1.09200
C1479       C  0.74552936  0.09544914  0.65267834     1.06980
H1480       H  0.83401811  0.12230170  0.80783350     0.32530
O1481       O  0.83511029  0.13519487  0.78235960    -1.29380
H1482       H  0.79655162  0.13069885  0.62355932     0.32210
O1483       O  0.80738463  0.14120463  0.65289410    -1.31060
O1484       O  0.83849898  0.20664438  0.86419455    -0.86830
O1485       O  0.88547669  0.21763890  0.59342148    -0.88330
O1486       O  0.88778200  0.16001882  0.84327741    -0.86910
O1487       O  0.75763268  0.16542206  0.75242972    -0.86960
O1488       O  0.78371218  0.17001231  0.60061251    -0.86670
O1489       O  0.91573879  0.17135643  0.69587742    -0.86470
O1490       O  0.91244845  0.24635702  0.76246027    -0.86840
O1491       O  0.84467656  0.24877762  0.69134582    -0.86310
O1492       O  0.91684583  0.21047469  0.79533244    -0.87370
O1493       O  0.80020429  0.21525198  0.66220906    -0.86530
O1494       O  0.84989832  0.15699206  0.88327485    -0.86930
O1495       O  0.89923276  0.17564300  0.61892816    -0.86650
O1496       O  0.82079797  0.17143540  0.56020393    -0.86300
O1497       O  0.77547565  0.16283171  0.82955253    -0.86710
O1498       O  0.86327994  0.24303869  0.80991272    -0.87000
O1499       O  0.89553664  0.24936330  0.65709996    -0.88340
Zr1500     Zr  0.81943431  0.16282006  0.81782789     2.83100
Zr1501     Zr  0.85327347  0.17138056  0.62638812     2.83500
Zr1502     Zr  0.88126759  0.16512388  0.75591118     2.84090
Zr1503     Zr  0.78974220  0.16757235  0.68863295     2.83360
Zr1504     Zr  0.86518267  0.22354344  0.72864358     2.84220
O1505       O  0.83585696  0.19759963  0.66133711    -1.08910
O1506       O  0.86475800  0.19259859  0.78902017    -1.08410
C1507       C  0.85347030  0.23313812  0.85375590     1.06240
C1508       C  0.89921179  0.24278406  0.61234870     1.08860
C1509       C  0.87364434  0.15712239  0.88272039     1.06420
C1510       C  0.75668870  0.16362828  0.80086132     1.06780
C1511       C  0.79699765  0.17089328  0.56113943     1.06360
C1512       C  0.91793214  0.17516275  0.64822179     1.05910
C1513       C  0.92366778  0.23661164  0.79241514     1.06340
C1514       C  0.82184251  0.24097334  0.66548097     1.05850
H1515       H  0.90166732  0.20922040  0.68624589     0.32530
O1516       O  0.88231622  0.19657058  0.69567277    -1.30010
H1517       H  0.81224742  0.20547273  0.77143064     0.32550
O1518       O  0.81897855  0.19403175  0.75733443    -1.31400
C1519       C  0.97911935  0.48319308  0.46425869     0.01940
C1520       C  0.00285433  0.48021170  0.46381454     0.01940
C1521       C  0.53075921  0.00387454  0.46307780     0.01940
C1522       C  0.53526723  0.03167619  0.46413465     0.01940
C1523       C  0.51088999  0.03469862  0.46517891     0.01940
C1524       C  0.98292681  0.01032657  0.46205252     0.01940
C1525       C  0.50711515  0.17063462  0.55311852     0.02780
C1526       C  0.50669682  0.14514188  0.55118103    -0.13370
C1527       C  0.52441729  0.14227638  0.51806586     0.00280
C1528       C  0.54253083  0.16504832  0.48761764    -0.11890
C1529       C  0.54259050  0.19027955  0.48993945     0.02770
C1530       C  0.52572533  0.19339156  0.52391617    -0.11310
H1531       H  0.49109554  0.12704203  0.57194790     0.08370
H1532       H  0.55520501  0.16252240  0.46001697     0.05900
H1533       H  0.52528930  0.21275608  0.52455357     0.05740
C1534       C  0.65033701  0.45868743  0.47590339     0.02780
C1535       C  0.67090383  0.98006299  0.50833658    -0.13370
C1536       C  0.66653591  0.00113187  0.52822651     0.00280
C1537       C  0.64169255  0.00064759  0.51588726    -0.11890
C1538       C  0.62092389  0.97983819  0.48431298     0.02770
C1539       C  0.62517790  0.45877599  0.46420355    -0.11310
H1540       H  0.69048970  0.98075789  0.51684530     0.08370
H1541       H  0.63850246  0.01694417  0.53097678     0.05900
H1542       H  0.60935062  0.44291686  0.43889506     0.05740
C1543       C  0.85181744  0.03759411  0.45331837     0.02780
C1544       C  0.87683761  0.03696974  0.46018297    -0.13370
C1545       C  0.88250933  0.01956988  0.43059640     0.00280
C1546       C  0.86333093  0.00468519  0.39033873    -0.11890
C1547       C  0.83942690  0.00702773  0.38019370     0.02770
C1548       C  0.83372959  0.02323339  0.41240774    -0.11310
H1549       H  0.89167816  0.04999767  0.48920383     0.08370
H1550       H  0.86615742  0.49030041  0.36739974     0.05900
H1551       H  0.81473994  0.02403692  0.40626868     0.05740
C1552       C  0.52229857  0.35096815  0.42425582     0.02780
C1553       C  0.00477332  0.32825236  0.45640479    -0.13370
C1554       C  0.98249944  0.32795137  0.48181424     0.00280
C1555       C  0.97820787  0.35045868  0.47642400    -0.11890
C1556       C  0.99644604  0.37388464  0.44796875     0.02770
C1557       C  0.51806495  0.37383029  0.42177917    -0.11310
H1558       H  0.00838793  0.31105868  0.46240169     0.08370
H1559       H  0.96088231  0.34995496  0.49572589     0.05900
H1560       H  0.53183644  0.39200074  0.39964715     0.05740
C1561       C  0.70541782  0.15061191  0.43379311     0.02780
C1562       C  0.67889290  0.12743712  0.44805177    -0.13370
C1563       C  0.65327557  0.12164936  0.42337277     0.00280
C1564       C  0.65641037  0.13987146  0.38334020    -0.11890
C1565       C  0.68142668  0.16571484  0.37687464     0.02770
C1566       C  0.70614814  0.17044374  0.40044555    -0.11310
H1567       H  0.67921089  0.11531199  0.47921109     0.08370
H1568       H  0.63928494  0.13596366  0.35820649     0.05900
H1569       H  0.72582103  0.19019961  0.39464601     0.05740
C1570       C  0.83975951  0.33504682  0.54188905     0.02780
C1571       C  0.86682342  0.35994692  0.53957845    -0.13370
C1572       C  0.87179182  0.38123252  0.50476998     0.00280
C1573       C  0.84989121  0.37714529  0.47212938    -0.11890
C1574       C  0.82356515  0.35229558  0.47273718     0.02770
C1575       C  0.81826476  0.33134890  0.50791162    -0.11310
H1576       H  0.88392764  0.36248871  0.56393906     0.08370
H1577       H  0.85358090  0.39325714  0.44494843     0.05900
H1578       H  0.79771715  0.31200673  0.50812792     0.05740
O1579       O  0.63331751  0.29401051  0.35936172    -0.86840
O1580       O  0.61175428  0.32388808  0.09109133    -0.87000
O1581       O  0.59342528  0.32813002  0.26410973    -0.88670
O1582       O  0.58369320  0.25560859  0.19430118    -0.87430
O1583       O  0.61422128  0.24204780  0.16788842    -0.87020
O1584       O  0.62924451  0.37376008  0.27941512    -0.88390
O1585       O  0.58376744  0.30593995  0.15977096    -0.86870
O1586       O  0.59486841  0.27802451  0.30688198    -0.86450
Zr1587     Zr  0.61231213  0.30283101  0.22635916     2.84310
O1588       O  0.63344703  0.29600215  0.15721247    -1.08430
O1589       O  0.64530873  0.33807734  0.28005320    -1.09160
C1590       C  0.60688085  0.27831017  0.34941497     1.06270
C1591       C  0.58837954  0.31510714  0.11441936     1.06210
C1592       C  0.60341229  0.35251110  0.28459999     1.09200
C1593       C  0.58917128  0.23853183  0.17203438     1.06980
H1594       H  0.62698456  0.35289055  0.17416642     0.32530
O1595       O  0.63904082  0.34595214  0.18473711    -1.29380
H1596       H  0.63053308  0.26879663  0.27105310     0.32210
O1597       O  0.64145853  0.28693647  0.25519384    -1.31060
O1598       O  0.70242981  0.36752583  0.06766485    -0.86830
O1599       O  0.72014374  0.33800966  0.34389939    -0.88330
O1600       O  0.66745531  0.40744205  0.17002616    -0.86910
O1601       O  0.65805613  0.26876297  0.09857014    -0.86960
O1602       O  0.66920227  0.25523449  0.25197625    -0.86670
O1603       O  0.68872594  0.39732994  0.32190151    -0.86470
O1604       O  0.75270435  0.40663580  0.22995086    -0.86840
O1605       O  0.74385765  0.33212788  0.16825032    -0.86310
O1606       O  0.72260993  0.42128623  0.25362686    -0.87370
O1607       O  0.70845390  0.28563022  0.15746344    -0.86530
O1608       O  0.66102714  0.38149738  0.09870717    -0.86930
O1609       O  0.66945307  0.35753885  0.36771914    -0.86650
O1610       O  0.67573129  0.27919278  0.32654383    -0.86300
O1611       O  0.65500913  0.30240006  0.05331886    -0.86710
O1612       O  0.74065360  0.38169767  0.12139526    -0.87000
O1613       O  0.74923077  0.35245264  0.27610485    -0.88340
Zr1614     Zr  0.66028933  0.33848024  0.11579987     2.83100
Zr1615     Zr  0.67392065  0.32238967  0.31148177     2.83500
Zr1616     Zr  0.67305432  0.38104024  0.23842835     2.84090
Zr1617     Zr  0.66378944  0.28141384  0.18577287     2.83360
Zr1618     Zr  0.72412411  0.35793567  0.20249980     2.84220
O1619       O  0.69611234  0.31540840  0.24329641    -1.08910
O1620       O  0.69469908  0.37333763  0.17077861    -1.08410
C1621       C  0.72916418  0.38167053  0.07849441     1.06240
C1622       C  0.74382126  0.34589156  0.32312697     1.08860
C1623       C  0.66318485  0.40287303  0.12213547     1.06420
C1624       C  0.65552665  0.27923325  0.05715794     1.06780
C1625       C  0.67372632  0.25863401  0.29965244     1.06360
C1626       C  0.67645920  0.38388944  0.36129113     1.05910
C1627       C  0.74752943  0.42426967  0.25128311     1.06340
C1628       C  0.73431484  0.30665068  0.15312821     1.05850
H1629       H  0.71538034  0.37686390  0.29387396     0.32530
O1630       O  0.70158414  0.36433304  0.26934526    -1.30010
H1631       H  0.70020171  0.32269738  0.11664481     0.32550
O1632       O  0.69088121  0.32448966  0.14534983    -1.31400
C1633       C  0.94491338  0.13641907  0.01383954     0.02780
C1634       C  0.96650510  0.15669456  0.04672630    -0.13370
C1635       C  0.98837612  0.15289244  0.06560044     0.00280
C1636       C  0.98853833  0.12882240  0.05136736    -0.11890
C1637       C  0.96720314  0.10802560  0.02053811     0.02770
C1638       C  0.94572638  0.11204494  0.00083990    -0.11310
H1639       H  0.96655789  0.17560572  0.05717489     0.08370
H1640       H  0.50602454  0.12645246  0.06353972     0.05900
H1641       H  0.93019923  0.09653881  0.97471609     0.05740
C1642       C  0.99056716  0.01968126  0.98259908     0.01940
C1643       C  0.51830967  0.02489150  0.97781203     0.01940
C1644       C  0.52229937  0.50152768  0.97750367     0.01940
C1645       C  0.49919113  0.47361194  0.98534119     0.01940
C1646       C  0.97209389  0.46919100  0.99401581     0.01940
C1647       C  0.96763164  0.49175405  0.98775965     0.01940
C1648       C  0.64765896  0.47595017  0.98879496     0.02780
C1649       C  0.67053533  0.49275680  0.95817861    -0.13370
C1650       C  0.66989835  0.01222127  0.92598075     0.00280
C1651       C  0.64640916  0.01538664  0.92434436    -0.11890
C1652       C  0.62335212  0.49865616  0.95495841     0.02770
C1653       C  0.62408128  0.47901269  0.98740421    -0.11310
H1654       H  0.68934654  0.49130317  0.96041520     0.08370
H1655       H  0.64640928  0.03128326  0.90057356     0.05900
H1656       H  0.60643541  0.46629891  0.01159970     0.05740
C1657       C  0.50337928  0.33268773  0.02634913     0.02780
C1658       C  0.50520273  0.35885418  0.02484512    -0.13370
C1659       C  0.99723755  0.36760927  0.98098325     0.00280
C1660       C  0.98437514  0.34768201  0.94112730    -0.11890
C1661       C  0.97910668  0.32014595  0.94616696     0.02770
C1662       C  0.98897769  0.31295747  0.98838981    -0.11310
H1663       H  0.51448816  0.37265449  0.05704748     0.08370
H1664       H  0.97853651  0.35312371  0.90587964     0.05900
H1665       H  0.98778225  0.29276676  0.98946008     0.05740
C1666       C  0.64323331  0.18790398  0.93746218     0.02780
C1667       C  0.66436489  0.18761417  0.90931653    -0.13370
C1668       C  0.66158304  0.16207027  0.89374173     0.00280
C1669       C  0.63691149  0.13648056  0.90501648    -0.11890
C1670       C  0.61458941  0.13609441  0.93013835     0.02770
C1671       C  0.61811698  0.16193942  0.94692858    -0.11310
H1672       H  0.68348684  0.20730707  0.90055488     0.08370
H1673       H  0.63502477  0.11674298  0.89391633     0.05900
H1674       H  0.60157830  0.16175707  0.96830670     0.05740
C1675       C  0.83828193  0.49735170  0.88350533     0.02780
C1676       C  0.81218662  0.47788160  0.90530703    -0.13370
C1677       C  0.81020654  0.45630536  0.93643693     0.00280
C1678       C  0.83403807  0.45413704  0.94486827    -0.11890
C1679       C  0.85998919  0.47376248  0.92449811     0.02770
C1680       C  0.86190639  0.49509283  0.89371340    -0.11310
H1681       H  0.79399076  0.48010571  0.89966689     0.08370
H1682       H  0.83271937  0.43800178  0.96975668     0.05900
H1683       H  0.88223486  0.01074649  0.87893871     0.05740
C1684       C  0.86208445  0.30807311  0.01334582     0.02780
C1685       C  0.83668243  0.30038314  0.03741897    -0.13370
C1686       C  0.83399907  0.32048240  0.06464326     0.00280
C1687       C  0.85697923  0.34862068  0.06744721    -0.11890
C1688       C  0.88231882  0.35639233  0.04350223     0.02770
C1689       C  0.88511964  0.33582721  0.01865713    -0.11310
H1690       H  0.81821285  0.27948319  0.03153817     0.08370
H1691       H  0.85446699  0.36474767  0.08521484     0.05900
H1692       H  0.90459608  0.34219406  0.99937570     0.05740
C1693       C  0.89166820  0.47383430  0.99177070    -0.26670
C1694       C  0.88601675  0.47450416  0.94028561    -0.14740
C1695       C  0.90642159  0.47869442  0.90500728     0.35890
C1696       C  0.93297841  0.48467101  0.92213920    -0.26110
C1697       C  0.93909129  0.48548938  0.97353938    -0.15350
C1698       C  0.91805756  0.47890575  0.00878824     0.36980
N1699       N  0.92341091  0.47702860  0.06116995    -0.89600
H1700       H  0.87583809  0.47032392  0.01883373     0.18090
H1701       H  0.94903215  0.48841945  0.89534836     0.18080
N1702       N  0.90008291  0.47698898  0.85209923    -0.88630
H1703       H  0.90526881  0.47100343  0.08173956     0.35460
H1704       H  0.93874427  0.49717211  0.07397880     0.40560
H1705       H  0.88387951  0.45625381  0.84392675     0.40180
H1706       H  0.91751996  0.48071466  0.83134788     0.35060
C1707       C  0.55156244  0.06029040  0.91742630    -0.26670
C1708       C  0.54247403  0.05406100  0.96704657    -0.14740
C1709       C  0.55643660  0.07553808  0.00424541     0.35890
C1710       C  0.57923123  0.10220127  0.99081088    -0.26110
C1711       C  0.58841096  0.10839583  0.94109766    -0.15350
C1712       C  0.57363675  0.08715733  0.90369956     0.36980
N1713       N  0.57946397  0.09226460  0.85120295    -0.89600
H1714       H  0.54076575  0.04417650  0.88855918     0.18090
H1715       H  0.59037939  0.11804813  0.01994111     0.18080
N1716       N  0.54893473  0.07096859  0.05613527    -0.88630
H1717       H  0.58929856  0.08140833  0.84004545     0.35460
H1718       H  0.59295978  0.11366088  0.84371203     0.40560
H1719       H  0.53229422  0.05043949  0.06223949     0.40180
H1720       H  0.54181953  0.08448890  0.06580695     0.35060
C1721       C  0.55600568  0.49820977  0.92292059    -0.26670
C1722       C  0.55067178  0.50594231  0.96954966    -0.14740
C1723       C  0.57071884  0.51390097  0.00941913     0.35890
C1724       C  0.59500532  0.51279588  0.00208906    -0.26110
C1725       C  0.59940376  0.50313350  0.95666677    -0.15350
C1726       C  0.57988449  0.49614175  0.91608862     0.36980
N1727       N  0.58272781  0.48567980  0.86858341    -0.89600
H1728       H  0.54051227  0.49197571  0.89253612     0.18090
H1729       H  0.60990142  0.51804762  0.03321280     0.18080
N1730       N  0.56604530  0.52059115  0.05896777    -0.88630
H1731       H  0.56532628  0.46516442  0.86368040     0.35460
H1732       H  0.60060345  0.48395319  0.86791643     0.40560
H1733       H  0.54595050  0.51763483  0.06224306     0.40180
H1734       H  0.58082304  0.54195821  0.06592698     0.35060
C1735       C  0.98408485  0.40143635  0.94467119    -0.26670
C1736       C  0.00175553  0.39687936  0.97718182    -0.14740
C1737       C  0.52244191  0.42042638  0.00656837     0.35890
C1738       C  0.52049880  0.44457238  0.01078494    -0.26110
C1739       C  0.50213936  0.44837105  0.97947387    -0.15350
C1740       C  0.98598338  0.42765781  0.94263926     0.36980
N1741       N  0.97128325  0.43327801  0.90365737    -0.89600
H1742       H  0.96841759  0.38472990  0.92064025     0.18090
H1743       H  0.53416959  0.46084778  0.03760816     0.18080
N1744       N  0.54728478  0.42212810  0.02817345    -0.88630
H1745       H  0.96034133  0.41588483  0.87940094     0.35460
H1746       H  0.98649468  0.44991360  0.88232632     0.40560
H1747       H  0.55106932  0.40712676  0.01270322     0.40180
H1748       H  0.54510348  0.41978228  0.06700942     0.35060
C1749       C  0.92625953  0.42439056  0.97378125    -0.26670
C1750       C  0.94809149  0.44076956  0.00872533    -0.14740
C1751       C  0.94678554  0.43026757  0.05758428     0.35890
C1752       C  0.92440883  0.40297476  0.06953275    -0.26110
C1753       C  0.90340744  0.38632446  0.03359873    -0.15350
C1754       C  0.90400668  0.39732540  0.98565160     0.36980
N1755       N  0.88228187  0.38053043  0.94878459    -0.89600
H1756       H  0.92684033  0.43252721  0.93664920     0.18090
H1757       H  0.92369159  0.39440681  0.10639590     0.18080
N1758       N  0.96777576  0.44758561  0.09507820    -0.88630
H1759       H  0.88600443  0.39150820  0.91512828     0.35460
H1760       H  0.86315639  0.37726290  0.96206150     0.40560
H1761       H  0.98715008  0.45051423  0.08425506     0.40180
H1762       H  0.96318599  0.43712623  0.12940791     0.35060
C1763       C  0.48105929  0.04877016  0.03879135    -0.26670
C1764       C  0.98495504  0.04295758  0.98960298    -0.14740
C1765       C  0.97935125  0.05608144  0.94933693     0.35890
C1766       C  0.97170013  0.07621177  0.95964018    -0.26110
C1767       C  0.96902185  0.08280415  0.00926868    -0.15350
C1768       C  0.97272524  0.06809813  0.04906908     0.36980
N1769       N  0.46842530  0.07329725  0.09999688    -0.89600
H1770       H  0.48423498  0.03780134  0.06948970     0.18090
H1771       H  0.96875647  0.08743403  0.92911206     0.18080
N1772       N  0.98080786  0.04853359  0.89848266    -0.88630
H1773       H  0.47221863  0.06094897  0.12486553     0.35460
H1774       H  0.44708251  0.06683618  0.10304621     0.40560
H1775       H  0.00189953  0.05546708  0.89144918     0.40180
H1776       H  0.97491102  0.05924963  0.87350979     0.35060
C1777       C  0.62686456  0.22160991  0.95813382    -0.26670
C1778       C  0.64831119  0.21504123  0.95995598    -0.14740
C1779       C  0.67406093  0.23389055  0.98565646     0.35890
C1780       C  0.67719259  0.25779712  0.01023520    -0.26110
C1781       C  0.65489743  0.26294884  0.01236432    -0.15350
C1782       C  0.62989801  0.24540466  0.98360043     0.36980
N1783       N  0.60676225  0.25021697  0.98128152    -0.89600
H1784       H  0.60725853  0.20774366  0.93771940     0.18090
H1785       H  0.69627772  0.27100414  0.03256160     0.18080
N1786       N  0.69623322  0.22766612  0.99017561    -0.88630
H1787       H  0.60298108  0.25249650  0.94350098     0.35460
H1788       H  0.61251117  0.26946582  0.99831110     0.40560
H1789       H  0.68852857  0.20926892  0.01128019     0.40180
H1790       H  0.71371805  0.24364014  0.01016355     0.35060
C1791       C  0.76744901  0.32226683  0.08434588    -0.26670
C1792       C  0.75506734  0.30355339  0.12441178    -0.14740
C1793       C  0.76702125  0.28788751  0.14160968     0.35890
C1794       C  0.79228021  0.29262678  0.12008505    -0.26110
C1795       C  0.80585621  0.31323300  0.08291451    -0.15350
C1796       C  0.79268388  0.32733889  0.06355741     0.36980
N1797       N  0.80549331  0.34740145  0.02380059    -0.89600
H1798       H  0.75813786  0.33424896  0.07111441     0.18090
H1799       H  0.80216979  0.28134590  0.13402729     0.18080
N1800       N  0.75426013  0.26829174  0.18194290    -0.88630
H1801       H  0.79353886  0.35653196  0.01470406     0.35460
H1802       H  0.80527942  0.33632626  0.99191853     0.40560
H1803       H  0.75567954  0.27983463  0.21400116     0.40180
H1804       H  0.76568981  0.25847725  0.19007955     0.35060
C1805       C  0.53845896  0.30373902  0.10911587    -0.26670
C1806       C  0.56596289  0.31823925  0.08964044    -0.14740
C1807       C  0.57244365  0.33847054  0.05163100     0.35890
C1808       C  0.55173242  0.34398387  0.03507357    -0.26110
C1809       C  0.52457164  0.32969543  0.05471188    -0.15350
C1810       C  0.51759709  0.30903991  0.09175807     0.36980
N1811       N  0.48991528  0.29344092  0.11286522    -0.89600
H1812       H  0.53311080  0.28829513  0.13842555     0.18090
H1813       H  0.55656406  0.35910503  0.00529771     0.18080
N1814       N  0.60014344  0.35402405  0.03070128    -0.88630
H1815       H  0.48099302  0.27223748  0.10246679     0.35460
H1816       H  0.97661058  0.30001151  0.09833346     0.40560
H1817       H  0.61344062  0.36819382  0.05848377     0.40180
H1818       H  0.60056572  0.36641432  0.00070197     0.35060
C1819       C  0.52829447  0.20249742  0.07837179    -0.26670
C1820       C  0.51303325  0.17479620  0.09611840    -0.14740
C1821       C  0.52352157  0.16763173  0.13916053     0.35890
C1822       C  0.54941509  0.18811267  0.16230817    -0.26110
C1823       C  0.56470179  0.21562808  0.14378840    -0.15350
C1824       C  0.55377134  0.22295653  0.10197821     0.36980
N1825       N  0.56846000  0.25155888  0.08438990    -0.89600
H1826       H  0.52058902  0.20808246  0.04533542     0.18090
H1827       H  0.55721250  0.18287745  0.19564591     0.18080
N1828       N  0.50764710  0.13966415  0.15946444    -0.88630
H1829       H  0.55814546  0.25355638  0.05279126     0.35460
H1830       H  0.58847850  0.25643365  0.07327032     0.40560
H1831       H  0.98844600  0.13665301  0.17175347     0.40180
H1832       H  0.51812660  0.13781991  0.19096326     0.35060
C1833       C  0.76260106  0.42948565  0.04760041    -0.26670
C1834       C  0.74798495  0.40020453  0.03900266    -0.14740
C1835       C  0.75114775  0.38966630  0.99271582     0.35890
C1836       C  0.76981365  0.40877431  0.95736192    -0.26110
C1837       C  0.78517387  0.43801838  0.96686624    -0.15350
C1838       C  0.78104930  0.44839319  0.01216781     0.36980
N1839       N  0.79637392  0.47798049  0.02410119    -0.89600
H1840       H  0.75994015  0.43772184  0.08255842     0.18090
H1841       H  0.77344447  0.40064308  0.92321677     0.18080
N1842       N  0.73665547  0.35994499  0.98087805    -0.88630
H1843       H  0.79176609  0.48842329  0.99631635     0.35460
H1844       H  0.81804335  0.48544269  0.02373672     0.40560
H1845       H  0.72427512  0.34759566  0.01033963     0.40180
H1846       H  0.75197082  0.35455686  0.97581123     0.35060
C1847       C  0.66242424  0.42116037  0.03782258    -0.26670
C1848       C  0.65971979  0.42274497  0.08993722    -0.14740
C1849       C  0.65138265  0.44113496  0.10848479     0.35890
C1850       C  0.64649032  0.45779228  0.07484695    -0.26110
C1851       C  0.64946708  0.45606743  0.02304841    -0.15350
C1852       C  0.65679849  0.43707060  0.00449679     0.36980
N1853       N  0.65821782  0.43364314  0.95156458    -0.89600
H1854       H  0.66847790  0.40703696  0.02228591     0.18090
H1855       H  0.64085731  0.47246407  0.08928246     0.18080
N1856       N  0.64744403  0.44271428  0.16101322    -0.88630
H1857       H  0.64395498  0.41246058  0.94211785     0.35460
H1858       H  0.67860308  0.43816472  0.94374678     0.40560
H1859       H  0.62656340  0.43746236  0.16603172     0.40180
H1860       H  0.66085518  0.46364060  0.17294040     0.35060
C1861       C  0.80137994  0.33788170  0.38809002    -0.26670
C1862       C  0.80201313  0.34904688  0.43567463    -0.14740
C1863       C  0.78483462  0.36039651  0.44469084     0.35890
C1864       C  0.76739153  0.36016388  0.40595413    -0.26110
C1865       C  0.76609431  0.34850758  0.35835465    -0.15350
C1866       C  0.78332849  0.33701522  0.34939262     0.36980
N1867       N  0.78225251  0.32309957  0.30320662    -0.89600
H1868       H  0.81495638  0.32957257  0.38108848     0.18090
H1869       H  0.75426091  0.36893162  0.41350849     0.18080
N1870       N  0.78473390  0.37263824  0.49221532    -0.88630
H1871       H  0.80157214  0.33558039  0.28556375     0.35460
H1872       H  0.76634452  0.32090134  0.27864059     0.40560
H1873       H  0.79835313  0.37163390  0.51862603     0.40180
H1874       H  0.76436676  0.36052983  0.50639712     0.35060
C1875       C  0.65923553  0.19452613  0.37385270    -0.26670
C1876       C  0.67994077  0.18957823  0.35516166    -0.14740
C1877       C  0.69936656  0.20853555  0.32003410     0.35890
C1878       C  0.69789429  0.23206095  0.30570403    -0.26110
C1879       C  0.67693246  0.23666618  0.32396529    -0.15350
C1880       C  0.65691890  0.21725336  0.35770168     0.36980
N1881       N  0.63349880  0.21917619  0.37502489    -0.89600
H1882       H  0.64434525  0.18031461  0.40112482     0.18090
H1883       H  0.71253728  0.24629053  0.27813995     0.18080
N1884       N  0.71963838  0.20388429  0.29594318    -0.88630
H1885       H  0.61484854  0.20094808  0.36287728     0.35460
H1886       H  0.63297406  0.23605671  0.35895240     0.40560
H1887       H  0.71662845  0.18410360  0.30422003     0.40180
H1888       H  0.73979074  0.21928118  0.30925920     0.35060
C1889       C  0.56865804  0.37723673  0.37810040    -0.26670
C1890       C  0.54429515  0.35125160  0.39141639    -0.14740
C1891       C  0.53985418  0.32639474  0.36822276     0.35890
C1892       C  0.55957022  0.32779597  0.33458735    -0.26110
C1893       C  0.58329101  0.35372805  0.31978848    -0.15350
C1894       C  0.58718269  0.37881473  0.34075671     0.36980
N1895       N  0.60907991  0.40573573  0.32298541    -0.89600
H1896       H  0.57312807  0.39670361  0.39586621     0.18090
H1897       H  0.55562659  0.30791498  0.31935073     0.18080
N1898       N  0.51479878  0.29956929  0.37675531    -0.88630
H1899       H  0.60834873  0.42205337  0.34112158     0.35460
H1900       H  0.60471547  0.40696292  0.28504562     0.40560
H1901       H  0.52090388  0.28579149  0.39058719     0.40180
H1902       H  0.50418979  0.29152323  0.34233335     0.35060
C1903       C  0.78049564  0.47559778  0.27766577    -0.26670
C1904       C  0.77169885  0.44688933  0.28158501    -0.14740
C1905       C  0.78626542  0.43928141  0.31655586     0.35890
C1906       C  0.80821144  0.45945033  0.34637640    -0.26110
C1907       C  0.81745048  0.48799102  0.34255249    -0.15350
C1908       C  0.80374277  0.49642997  0.30684895     0.36980
N1909       N  0.81300278  0.02560977  0.29850080    -0.89600
H1910       H  0.76982750  0.48194793  0.25104040     0.18090
H1911       H  0.81771794  0.45236875  0.37417349     0.18080
N1912       N  0.77861595  0.41080081  0.32477016    -0.88630
H1913       H  0.81845735  0.02983972  0.26082782     0.35460
H1914       H  0.83154469  0.03898182  0.31898055     0.40560
H1915       H  0.78252770  0.40305198  0.29229563     0.40180
H1916       H  0.75731659  0.39926676  0.33399067     0.35060
C1917       C  0.66690411  0.42282019  0.37147746    -0.26670
C1918       C  0.66890249  0.40100683  0.39553815    -0.14740
C1919       C  0.66464948  0.39849335  0.44824457     0.35890
C1920       C  0.65846774  0.41727818  0.47371207    -0.26110
C1921       C  0.65683272  0.43896379  0.44854676    -0.15350
C1922       C  0.66196131  0.44193513  0.39666472     0.36980
N1923       N  0.66270845  0.46428983  0.36763035    -0.89600
H1924       H  0.66956079  0.42571237  0.33134995     0.18090
H1925       H  0.65520079  0.41507984  0.51377304     0.18080
N1926       N  0.66748536  0.37834588  0.47769647    -0.88630
H1927       H  0.68284525  0.47608910  0.35241649     0.35460
H1928       H  0.66038648  0.47848371  0.38951733     0.40560
H1929       H  0.67381249  0.36701089  0.45616746     0.40180
H1930       H  0.64755283  0.36386017  0.49157494     0.35060
C1931       C  0.58759567  0.22928012  0.46074319    -0.26670
C1932       C  0.55843154  0.21281577  0.45418848    -0.14740
C1933       C  0.54452382  0.21899562  0.41602934     0.35890
C1934       C  0.56058675  0.24133468  0.38334315    -0.26110
C1935       C  0.59015820  0.25777911  0.38888257    -0.15350
C1936       C  0.60371484  0.25215340  0.42956303     0.36980
N1937       N  0.63380421  0.26912739  0.43892112    -0.89600
H1938       H  0.59775423  0.22455933  0.49117912     0.18090
H1939       H  0.55000435  0.24555857  0.35301614     0.18080
N1940       N  0.51421714  0.20237208  0.41049068    -0.88630
H1941       H  0.64024550  0.26059215  0.46749884     0.35460
H1942       H  0.63825800  0.28881175  0.45219487     0.40560
H1943       H  0.50864870  0.18180214  0.40077883     0.40180
H1944       H  0.50726385  0.20982597  0.38088237     0.35060
C1945       C  0.91140781  0.41090927  0.44926719    -0.26670
C1946       C  0.90004847  0.40692082  0.49734008    -0.14740
C1947       C  0.91375970  0.42911304  0.53320582     0.35890
C1948       C  0.93882792  0.45403815  0.52032722    -0.26110
C1949       C  0.95042622  0.45771234  0.47246547    -0.15350
C1950       C  0.93604291  0.43590006  0.43611049     0.36980
N1951       N  0.94516115  0.43846478  0.38525817    -0.89600
H1952       H  0.90056224  0.39443412  0.42099365     0.18090
H1953       H  0.94974277  0.47059272  0.54841668     0.18080
N1954       N  0.90287722  0.42749004  0.58241751    -0.88630
H1955       H  0.94901855  0.42222324  0.37816908     0.35460
H1956       H  0.96403791  0.45748445  0.37961520     0.40560
H1957       H  0.88393564  0.40847226  0.58770920     0.40180
H1958       H  0.89814449  0.44341597  0.58531359     0.35060
C1959       C  0.50889786  0.10266124  0.45954973    -0.26670
C1960       C  0.51993193  0.11423227  0.50693930    -0.14740
C1961       C  0.52727860  0.09960210  0.54111055     0.35890
C1962       C  0.52440365  0.07387019  0.52598824    -0.26110
C1963       C  0.51423158  0.06260356  0.47755460    -0.15350
C1964       C  0.50591425  0.07724024  0.44428619     0.36980
N1965       N  0.49643214  0.06841007  0.39351659    -0.89600
H1966       H  0.50314491  0.11397934  0.43340454     0.18090
H1967       H  0.03006016  0.06246934  0.55205195     0.18080
N1968       N  0.53770285  0.11096871  0.59059457    -0.88630
H1969       H  0.47540927  0.06320978  0.39000579     0.35460
H1970       H  0.49759818  0.05090309  0.38407832     0.40560
H1971       H  0.55700473  0.12995165  0.58683883     0.40180
H1972       H  0.04196883  0.09747623  0.61121805     0.35060
C1973       C  0.59994916  0.09938777  0.41739683    -0.26670
C1974       C  0.62331238  0.09909285  0.43937963    -0.14740
C1975       C  0.61650245  0.07756860  0.47564951     0.35890
C1976       C  0.58786094  0.05898659  0.48877888    -0.26110
C1977       C  0.56515580  0.05698640  0.46010097    -0.15350
C1978       C  0.57204048  0.07739287  0.42293728     0.36980
N1979       N  0.55124129  0.07514843  0.38757342    -0.89600
H1980       H  0.60225532  0.11598446  0.39336609     0.18090
H1981       H  0.58329486  0.04440734  0.51917637     0.18080
N1982       N  0.63785694  0.07329628  0.49769111    -0.88630
H1983       H  0.55695416  0.07225722  0.35195920     0.35460
H1984       H  0.55214999  0.09449142  0.38736377     0.40560
H1985       H  0.64539234  0.06621170  0.46906489     0.40180
H1986       H  0.62921461  0.05715309  0.52414091     0.35060
C1987       C  0.94568117  0.01876212  0.49508590    -0.26670
C1988       C  0.95725537  0.01263100  0.45442571    -0.14740
C1989       C  0.94301016  0.50650490  0.40733154     0.35890
C1990       C  0.92017464  0.01069206  0.40048628    -0.26110
C1991       C  0.90822720  0.01701892  0.44087927    -0.15350
C1992       C  0.92079874  0.01963591  0.48963241     0.36980
N1993       N  0.90768986  0.02021094  0.53505797    -0.89600
H1994       H  0.95531990  0.02150125  0.53206706     0.18090
H1995       H  0.91155148  0.50847909  0.36290758     0.18080
N1996       N  0.95082038  0.49485439  0.36697631    -0.88630
H1997       H  0.88565830  0.00780856  0.53137677     0.35460
H1998       H  0.91450072  0.04108700  0.54473247     0.40560
H1999       H  0.97154529  0.50898973  0.35662549     0.40180
H2000       H  0.93796942  0.49114867  0.33513212     0.35060
C2001       C  0.59137901  0.99195385  0.42974178    -0.26670
C2002       C  0.59493214  0.98106743  0.47520503    -0.14740
C2003       C  0.57757527  0.47817007  0.51585145     0.35890
C2004       C  0.55860747  0.48760283  0.51102120    -0.26110
C2005       C  0.55460877  0.99816036  0.46576317    -0.15350
C2006       C  0.57118787  0.00018073  0.42424170     0.36980
N2007       N  0.56831285  0.01054705  0.37642274    -0.89600
H2008       H  0.60504998  0.99496906  0.39880166     0.18090
H2009       H  0.54673115  0.48666037  0.54334641     0.18080
N2010       N  0.57910980  0.46641063  0.56314730    -0.88630
H2011       H  0.58729016  0.02947089  0.36999162     0.35460
H2012       H  0.55240735  0.01536091  0.37647237     0.40560
H2013       H  0.59274956  0.45869368  0.56193479     0.40180
H2014       H  0.55905663  0.44879119  0.56951832     0.35060
C2015       C  0.99006580  0.40822448  0.49650783    -0.26670
C2016       C  0.99483564  0.39963176  0.45000785    -0.14740
C2017       C  0.49998831  0.41678232  0.40764206     0.35890
C2018       C  0.50302884  0.44318187  0.41355674    -0.26110
C2019       C  0.99858476  0.45173677  0.45999743    -0.15350
C2020       C  0.99109216  0.43382125  0.50163815     0.36980
N2021       N  0.98428177  0.44143766  0.54852728    -0.89600
H2022       H  0.98617444  0.39529722  0.52936571     0.18090
H2023       H  0.50826765  0.45690641  0.38141845     0.18080
N2024       N  0.50156214  0.40732587  0.35850718    -0.88630
H2025       H  0.97893827  0.42564204  0.57510597     0.35460
H2026       H  0.00207837  0.45966478  0.56271954     0.40560
H2027       H  0.52121520  0.42203585  0.34386080     0.40180
H2028       H  0.48587221  0.40720291  0.33576093     0.35060
C2029       C  0.71934304  0.17617970  0.80151794    -0.26670
C2030       C  0.73214647  0.16272532  0.82505292    -0.14740
C2031       C  0.72090641  0.14827828  0.87044991     0.35890
C2032       C  0.69778031  0.14829757  0.89160316    -0.26110
C2033       C  0.68525399  0.16203097  0.86825513    -0.15350
C2034       C  0.69605283  0.17587496  0.82213902     0.36980
N2035       N  0.68345890  0.18893747  0.79410585    -0.89600
H2036       H  0.72744275  0.18705424  0.76641647     0.18090
H2037       H  0.68947082  0.13757184  0.92674990     0.18080
N2038       N  0.73258801  0.13320188  0.89449241    -0.88630
H2039       H  0.69777730  0.21075519  0.79489481     0.35460
H2040       H  0.66471807  0.18525255  0.80972647     0.40560
H2041       H  0.72877721  0.11659825  0.87054034     0.40180
H2042       H  0.72206124  0.12394051  0.92765455     0.35060
C2043       C  0.84904912  0.24242394  0.94378622    -0.26670
C2044       C  0.85913252  0.25329324  0.89572601    -0.14740
C2045       C  0.87341119  0.28287656  0.88888285     0.35890
C2046       C  0.87443354  0.30019428  0.92816391    -0.26110
C2047       C  0.86299168  0.28906481  0.97519432    -0.15350
C2048       C  0.85122892  0.26001152  0.98364726     0.36980
N2049       N  0.84138467  0.24845538  0.03250276    -0.89600
H2050       H  0.83906898  0.21997758  0.95047481     0.18090
H2051       H  0.88365949  0.32255252  0.92139575     0.18080
N2052       N  0.88648867  0.29537081  0.84216411    -0.88630
H2053       H  0.83320941  0.22667291  0.03239882     0.35460
H2054       H  0.85892607  0.25748183  0.05711546     0.40560
H2055       H  0.90361166  0.29248257  0.83834740     0.40180
H2056       H  0.89505258  0.31721892  0.84299576     0.35060
C2057       C  0.94389847  0.17738812  0.57241379    -0.26670
C2058       C  0.94327649  0.17806038  0.62490969    -0.14740
C2059       C  0.96558717  0.17891470  0.65364427     0.35890
C2060       C  0.98593073  0.17570281  0.62923938    -0.26110
C2061       C  0.98462544  0.17225230  0.57724013    -0.15350
C2062       C  0.96351513  0.17330059  0.54821735     0.36980
N2063       N  0.96091520  0.16974531  0.49445010    -0.89600
H2064       H  0.92777159  0.17798001  0.54961938     0.18090
H2065       H  0.50302353  0.17613382  0.65067079     0.18080
N2066       N  0.96773685  0.18323872  0.70711021    -0.88630
H2067       H  0.94078880  0.15242161  0.48587356     0.35460
H2068       H  0.97496388  0.16437893  0.48035646     0.40560
H2069       H  0.97154447  0.20354199  0.71382451     0.40180
H2070       H  0.98518018  0.18293615  0.72217796     0.35060
C2071       C  0.96530996  0.30971467  0.56687770    -0.26670
C2072       C  0.96311759  0.30471040  0.51496330    -0.14740
C2073       C  0.93967038  0.27992103  0.49493658     0.35890
C2074       C  0.91903660  0.26034531  0.52740820    -0.26110
C2075       C  0.92106166  0.26513852  0.57971316    -0.15350
C2076       C  0.94476265  0.29013237  0.59954406     0.36980
N2077       N  0.94824561  0.29538726  0.65268380    -0.89600
H2078       H  0.98305740  0.32923574  0.58185614     0.18090
H2079       H  0.90101781  0.24136922  0.51151710     0.18080
N2080       N  0.93660976  0.27504235  0.44161145    -0.88630
H2081       H  0.96658731  0.31482035  0.66094844     0.35460
H2082       H  0.95131193  0.27990028  0.66858568     0.40560
H2083       H  0.93383264  0.29064317  0.42529518     0.40180
H2084       H  0.91829302  0.25567478  0.43289385     0.35060
C2085       C  0.92690632  0.25325723  0.87734724    -0.26670
C2086       C  0.94099925  0.25608815  0.83269366    -0.14740
C2087       C  0.96741567  0.28071323  0.82447071     0.35890
C2088       C  0.97945222  0.30183996  0.86157601    -0.26110
C2089       C  0.96517710  0.29884355  0.90620814    -0.15350
C2090       C  0.93872206  0.27419300  0.91423233     0.36980
N2091       N  0.92303721  0.27030031  0.95875758    -0.89600
H2092       H  0.90594082  0.23499933  0.88280920     0.18090
H2093       H  0.99998880  0.32059688  0.85570632     0.18080
N2094       N  0.98220780  0.28476303  0.77889544    -0.88630
H2095       H  0.92025188  0.28746845  0.96281476     0.35460
H2096       H  0.93465423  0.26986615  0.98973806     0.40560
H2097       H  0.96945288  0.28444875  0.74924024     0.40180
H2098       H  0.98519395  0.26775767  0.77416642     0.35060
C2099       C  0.87702557  0.12693648  0.94973262    -0.26670
C2100       C  0.88726348  0.15386624  0.92916324    -0.14740
C2101       C  0.91529520  0.17530686  0.94165069     0.35890
C2102       C  0.93289133  0.16946924  0.97137816    -0.26110
C2103       C  0.92354465  0.14219748  0.98923843    -0.15350
C2104       C  0.89471819  0.12092755  0.97997251     0.36980
N2105       N  0.88366460  0.09312929  0.00006936    -0.89600
H2106       H  0.85584527  0.11003603  0.93931154     0.18090
H2107       H  0.95471948  0.18619411  0.97758548     0.18080
N2108       N  0.92672445  0.20292169  0.92120226    -0.88630
H2109       H  0.86237171  0.07994419  0.98949480     0.35460
H2110       H  0.88441752  0.09496513  0.03915737     0.40560
H2111       H  0.94419724  0.20741273  0.89980306     0.40180
H2112       H  0.93388483  0.21740984  0.95105003     0.35060
C2113       C  0.84610809  0.29508648  0.56184475    -0.26670
C2114       C  0.83455074  0.31132044  0.57537595    -0.14740
C2115       C  0.81696218  0.30326826  0.61786331     0.35890
C2116       C  0.81166451  0.27928300  0.64558050    -0.26110
C2117       C  0.82325116  0.26301277  0.63167312    -0.15350
C2118       C  0.84048797  0.27101282  0.58869929     0.36980
N2119       N  0.85292942  0.25537969  0.57127833    -0.89600
H2120       H  0.85926980  0.30086034  0.52913814     0.18090
H2121       H  0.79904881  0.27378999  0.67892779     0.18080
N2122       N  0.80459349  0.31908018  0.63450527    -0.88630
H2123       H  0.84631497  0.24936621  0.53399859     0.35460
H2124       H  0.84544976  0.23655288  0.59070686     0.40560
H2125       H  0.81036982  0.33660665  0.61198358     0.40180
H2126       H  0.81289577  0.32700365  0.67038976     0.35060
C2127       C  0.74877054  0.18330529  0.48270520    -0.26670
C2128       C  0.73237102  0.15695460  0.45876771    -0.14740
C2129       C  0.74222782  0.13785628  0.45930735     0.35890
C2130       C  0.76675919  0.14467402  0.48768663    -0.26110
C2131       C  0.78172593  0.17017053  0.51488936    -0.15350
C2132       C  0.77315029  0.18999924  0.51048261     0.36980
N2133       N  0.78785950  0.21610951  0.53800691    -0.89600
H2134       H  0.74178184  0.19832610  0.48221814     0.18090
H2135       H  0.77285196  0.12904787  0.49158333     0.18080
N2136       N  0.72794058  0.11146617  0.43217443    -0.88630
H2137       H  0.77366020  0.21678908  0.56242163     0.35460
H2138       H  0.79424892  0.23259461  0.51251222     0.40560
H2139       H  0.71168748  0.10968325  0.40890960     0.40180
H2140       H  0.71868118  0.09532259  0.45850470     0.35060
C2141       C  0.83102772  0.03992003  0.77890072    -0.26670
C2142       C  0.85249959  0.06783181  0.79184090    -0.14740
C2143       C  0.87015123  0.07211197  0.83422520     0.35890
C2144       C  0.86464650  0.04886144  0.86405545    -0.26110
C2145       C  0.84224274  0.02132593  0.85226127    -0.15350
C2146       C  0.82576424  0.01686395  0.80866263     0.36980
N2147       N  0.80379215  0.98890121  0.79420060    -0.89600
H2148       H  0.81744394  0.03592356  0.74621356     0.18090
H2149       H  0.87776253  0.05227819  0.89719429     0.18080
N2150       N  0.89285293  0.09998822  0.84812509    -0.88630
H2151       H  0.80812132  0.98466931  0.75837956     0.35460
H2152       H  0.78470621  0.48853369  0.79199075     0.40560
H2153       H  0.90794903  0.10678818  0.82015729     0.40180
H2154       H  0.90299928  0.09947151  0.88126866     0.35060
C2155       C  0.72548659  0.04495136  0.82672160    -0.26670
C2156       C  0.74674151  0.06903178  0.85269061    -0.14740
C2157       C  0.74275339  0.07320909  0.90356852     0.35890
C2158       C  0.71698412  0.05450857  0.92568533    -0.26110
C2159       C  0.69550186  0.03139717  0.89888664    -0.15350
C2160       C  0.69988735  0.02601469  0.84923220     0.36980
N2161       N  0.67911330  0.00170703  0.82075303    -0.89600
H2162       H  0.72829839  0.04117151  0.78803741     0.18090
H2163       H  0.71361948  0.05780392  0.96437212     0.18080
N2164       N  0.76468006  0.09644029  0.93261367    -0.88630
H2165       H  0.67273615  0.00898649  0.79002973     0.35460
H2166       H  0.66100756  0.48895646  0.84132564     0.40560
H2167       H  0.78163606  0.09318921  0.93633440     0.40180
H2168       H  0.75796363  0.09665350  0.96889514     0.35060
C2169       C  0.72945702  0.07199210  0.57029967    -0.26670
C2170       C  0.72254465  0.07398619  0.61995580    -0.14740
C2171       C  0.69785269  0.05122685  0.64019273     0.35890
C2172       C  0.68029117  0.02722018  0.60998749    -0.26110
C2173       C  0.68760892  0.02492981  0.56070838    -0.15350
C2174       C  0.71239212  0.04766380  0.54059215     0.36980
N2175       N  0.71988965  0.04615559  0.48988637    -0.89600
H2176       H  0.74908364  0.08899113  0.55550353     0.18090
H2177       H  0.66081726  0.01007219  0.62493923     0.18080
N2178       N  0.69082794  0.05252712  0.69132361    -0.88830
H2179       H  0.73845788  0.06484820  0.48056069     0.35460
H2180       H  0.72456583  0.03016404  0.48816665     0.40560
H2181       H  0.70645616  0.05282457  0.71448147     0.40180
H2182       H  0.67177392  0.03424355  0.70024323     0.35060
C2183       C  0.86660008  0.08002053  0.50575452    -0.26670
C2184       C  0.84485050  0.05338246  0.48941106    -0.14740
C2185       C  0.81760674  0.04188303  0.50990334     0.35890
C2186       C  0.81261384  0.05769721  0.54501062    -0.26110
C2187       C  0.83462096  0.08442328  0.56088187    -0.15350
C2188       C  0.86207083  0.09504251  0.54251736     0.36980
N2189       N  0.88560332  0.12077018  0.56258052    -0.89600
H2190       H  0.88751331  0.08908463  0.49035641     0.18090
H2191       H  0.79160648  0.04912368  0.55974277     0.18080
N2192       N  0.79521024  0.01396142  0.49632823    -0.88630
H2193       H  0.90427746  0.12474147  0.54615373     0.35460
H2194       H  0.88774521  0.11749236  0.60063100     0.40560
H2195       H  0.77834417  0.01534556  0.48140202     0.40180
H2196       H  0.78837162  0.00197491  0.52898798     0.35060
O2197       O  0.84192430  0.62830734  0.58406149    -0.86840
O2198       O  0.78446379  0.61602616  0.84432791    -0.87000
O2199       O  0.82806863  0.58475298  0.74527321    -0.88670
O2200       O  0.76137339  0.58708501  0.67188452    -0.87430
O2201       O  0.75016586  0.62101019  0.65583933    -0.87020
O2202       O  0.87319254  0.61734390  0.77162368    -0.88390
O2203       O  0.77555945  0.58456392  0.78068081    -0.86870
O2204       O  0.81602393  0.59099893  0.63644154    -0.86450
Zr2205     Zr  0.80718248  0.61026666  0.71228324     2.84310
O2206       O  0.79034111  0.63704657  0.74855405    -1.08430
O2207       O  0.85338577  0.64000672  0.68577402    -1.09160
C2208       C  0.82982656  0.60205868  0.59582397     1.06270
C2209       C  0.77089644  0.59113075  0.82444049     1.06210
C2210       C  0.85182402  0.59161536  0.76686081     1.09200
C2211       C  0.74552923  0.59544878  0.65267864     1.06980
H2212       H  0.83401817  0.62230181  0.80783326     0.32530
O2213       O  0.83511038  0.63519497  0.78235929    -1.29380
H2214       H  0.79655184  0.63069866  0.62355873     0.32210
O2215       O  0.80738488  0.64120453  0.65289342    -1.31060
O2216       O  0.83849879  0.70664440  0.86419381    -0.86830
O2217       O  0.88547704  0.71763887  0.59342123    -0.88330
O2218       O  0.88778198  0.66001890  0.84327724    -0.86910
O2219       O  0.75763264  0.66542205  0.75242834    -0.86960
O2220       O  0.78371294  0.67001218  0.60061057    -0.86670
O2221       O  0.91573902  0.67135615  0.69587754    -0.86470
O2222       O  0.91244839  0.74635706  0.76245989    -0.86840
O2223       O  0.84467651  0.74877747  0.69134500    -0.86310
O2224       O  0.91684589  0.71047481  0.79533214    -0.87370
O2225       O  0.80020434  0.71525183  0.66220771    -0.86530
O2226       O  0.84989822  0.65699216  0.88327436    -0.86930
O2227       O  0.89923308  0.67564247  0.61892803    -0.86650
O2228       O  0.82079903  0.67143540  0.56020288    -0.86300
O2229       O  0.77547555  0.66283173  0.82955126    -0.86710
O2230       O  0.86327982  0.74303869  0.80991200    -0.87000
O2231       O  0.89553655  0.74936334  0.65709940    -0.88340
Zr2232     Zr  0.81943427  0.66282013  0.81782715     2.83100
Zr2233     Zr  0.85327392  0.67138046  0.62638787     2.83500
Zr2234     Zr  0.88126774  0.66512396  0.75591099     2.84090
Zr2235     Zr  0.78974225  0.66757223  0.68863163     2.83360
Zr2236     Zr  0.86518267  0.72354338  0.72864294     2.84220
O2237       O  0.83585716  0.69759945  0.66133634    -1.08910
O2238       O  0.86475801  0.69259863  0.78901968    -1.08410
C2239       C  0.85347012  0.73313813  0.85375517     1.06240
C2240       C  0.89921185  0.74278409  0.61234827     1.08860
C2241       C  0.87364424  0.65712247  0.88272010     1.06420
C2242       C  0.75668860  0.66362827  0.80085997     1.06780
C2243       C  0.79699872  0.67089328  0.56113777     1.06360
C2244       C  0.91793238  0.67516214  0.64822182     1.05910
C2245       C  0.92366776  0.73661174  0.79241480     1.06340
C2246       C  0.82184254  0.74097320  0.66547989     1.05850
H2247       H  0.90166765  0.70922045  0.68624556     0.32530
O2248       O  0.88231654  0.69657066  0.69567244    -1.30010
H2249       H  0.81224731  0.70547265  0.77142941     0.32550
O2250       O  0.81897847  0.69403165  0.75733333    -1.31400
C2251       C  0.97912020  0.98319363  0.46425921     0.01940
C2252       C  0.00285527  0.98021245  0.46381514     0.01940
C2253       C  0.53076152  0.50387666  0.46307923     0.01940
C2254       C  0.53526960  0.53167874  0.46413712     0.01940
C2255       C  0.51089129  0.53469998  0.46518068     0.01940
C2256       C  0.98292613  0.51032614  0.46205186     0.01940
C2257       C  0.50711345  0.67063619  0.55311648     0.02780
C2258       C  0.50669302  0.64514241  0.55118035    -0.13370
C2259       C  0.52441183  0.64227469  0.51806479     0.00280
C2260       C  0.54252575  0.66504540  0.48761453    -0.11890
C2261       C  0.54258750  0.69027769  0.48993523     0.02770
C2262       C  0.52572409  0.69339198  0.52391259    -0.11310
H2263       H  0.49109144  0.62704355  0.57194886     0.08370
H2264       H  0.55519883  0.66251785  0.46001373     0.05900
H2265       H  0.52528965  0.71275737  0.52454924     0.05740
C2266       C  0.65033744  0.95868919  0.47589935     0.02780
C2267       C  0.67090308  0.48006090  0.50834141    -0.13370
C2268       C  0.66653468  0.50112921  0.52823247     0.00280
C2269       C  0.64169099  0.50064442  0.51589400    -0.11890
C2270       C  0.62092295  0.47983575  0.48431781     0.02770
C2271       C  0.62517826  0.95877775  0.46420010    -0.11310
H2272       H  0.69048915  0.48075611  0.51684963     0.08370
H2273       H  0.63850049  0.51694041  0.53098479     0.05900
H2274       H  0.60935042  0.94291803  0.43889311     0.05740
C2275       C  0.85181693  0.53759396  0.45331793     0.02780
C2276       C  0.87683714  0.53696966  0.46018247    -0.13370
C2277       C  0.88250889  0.51956981  0.43059596     0.00280
C2278       C  0.86333043  0.50468506  0.39033836    -0.11890
C2279       C  0.83942643  0.50702765  0.38019329     0.02770
C2280       C  0.83372911  0.52323328  0.41240731    -0.11310
H2281       H  0.89167771  0.54999766  0.48920322     0.08370
H2282       H  0.86615798  0.99030060  0.36740005     0.05900
H2283       H  0.81473946  0.52403681  0.40626825     0.05740
C2284       C  0.52229957  0.85096815  0.42425887     0.02780
C2285       C  0.00477320  0.82825261  0.45640476    -0.13370
C2286       C  0.98249918  0.82795162  0.48181371     0.00280
C2287       C  0.97820761  0.85045890  0.47642311    -0.11890
C2288       C  0.99644590  0.87388484  0.44796788     0.02770
C2289       C  0.51806489  0.87382964  0.42178024    -0.11310
H2290       H  0.00838790  0.81105905  0.46240235     0.08370
H2291       H  0.96088204  0.84995525  0.49572483     0.05900
H2292       H  0.53183586  0.89199992  0.39964755     0.05740
C2293       C  0.70542005  0.65061142  0.43378917     0.02780
C2294       C  0.67889560  0.62743823  0.44805366    -0.13370
C2295       C  0.65327793  0.62165024  0.42337687     0.00280
C2296       C  0.65641082  0.63986932  0.38334048    -0.11890
C2297       C  0.68142689  0.66571252  0.37687057     0.02770
C2298       C  0.70614932  0.67044191  0.40043908    -0.11310
H2299       H  0.67921331  0.61531495  0.47921689     0.08370
H2300       H  0.63928296  0.63595865  0.35820958     0.05900
H2301       H  0.72582211  0.69019744  0.39463677     0.05740
C2302       C  0.83976024  0.83504715  0.54188878     0.02780
C2303       C  0.86682419  0.85994721  0.53957818    -0.13370
C2304       C  0.87179260  0.88123290  0.50476988     0.00280
C2305       C  0.84989196  0.87714579  0.47212945    -0.11890
C2306       C  0.82356586  0.85229612  0.47273732     0.02770
C2307       C  0.81826546  0.83134937  0.50791158    -0.11310
H2308       H  0.88392842  0.86248890  0.56393866     0.08370
H2309       H  0.85358165  0.89325769  0.44494862     0.05900
H2310       H  0.79771782  0.81200724  0.50812789     0.05740
O2311       O  0.63331684  0.79400917  0.35936153    -0.86840
O2312       O  0.61175467  0.82388833  0.09109155    -0.87000
O2313       O  0.59342557  0.82813013  0.26411086    -0.88670
O2314       O  0.58369330  0.75560887  0.19430092    -0.87430
O2315       O  0.61422121  0.74204772  0.16788882    -0.87020
O2316       O  0.62924517  0.87376001  0.27941674    -0.88390
O2317       O  0.58376775  0.80594033  0.15977108    -0.86870
O2318       O  0.59486812  0.77802420  0.30688109    -0.86450
Zr2319     Zr  0.61231231  0.80283120  0.22635922     2.84310
O2320       O  0.63344721  0.79600215  0.15721279    -1.08430
O2321       O  0.64530902  0.83807716  0.28005361    -1.09160
C2322       C  0.60688019  0.77830916  0.34941403     1.06270
C2323       C  0.58837990  0.81510747  0.11441947     1.06210
C2324       C  0.60341301  0.85251106  0.28460203     1.09200
C2325       C  0.58917127  0.73853195  0.17203445     1.06980
H2326       H  0.62698495  0.85289084  0.17416684     0.32530
O2327       O  0.63904115  0.84595237  0.18473754    -1.29380
H2328       H  0.63053287  0.76879635  0.27105305     0.32210
O2329       O  0.64145842  0.78693627  0.25519412    -1.31060
O2330       O  0.70243015  0.86752578  0.06766556    -0.86830
O2331       O  0.72014365  0.83800921  0.34390044    -0.88330
O2332       O  0.66745561  0.90744205  0.17002691    -0.86910
O2333       O  0.65805615  0.76876281  0.09857068    -0.86960
O2334       O  0.66920182  0.75523367  0.25197642    -0.86670
O2335       O  0.68872613  0.89732964  0.32190261    -0.86470
O2336       O  0.75270459  0.90663548  0.22995168    -0.86840
O2337       O  0.74385773  0.83212758  0.16825128    -0.86310
O2338       O  0.72261034  0.92128613  0.25362757    -0.87370
O2339       O  0.70845390  0.78562998  0.15746401    -0.86530
O2340       O  0.66102752  0.88149747  0.09870781    -0.86930
O2341       O  0.66945236  0.85753825  0.36771965    -0.86650
O2342       O  0.67573095  0.77919165  0.32654437    -0.86300
O2343       O  0.65500937  0.80240004  0.05331944    -0.86710
O2344       O  0.74065383  0.88169747  0.12139618    -0.87000
O2345       O  0.74923076  0.85245247  0.27610593    -0.88340
Zr2346     Zr  0.66028963  0.83848028  0.11580044     2.83100
Zr2347     Zr  0.67392048  0.82238902  0.31148278     2.83500
Zr2348     Zr  0.67305472  0.88104021  0.23842916     2.84090
Zr2349     Zr  0.66378942  0.78141360  0.18577344     2.83360
Zr2350     Zr  0.72412418  0.85793535  0.20250072     2.84220
O2351       O  0.69611230  0.81540799  0.24329724    -1.08910
O2352       O  0.69469941  0.87333755  0.17077939    -1.08410
C2353       C  0.72916450  0.88167041  0.07849524     1.06240
C2354       C  0.74382123  0.84589132  0.32312801     1.08860
C2355       C  0.66318518  0.90287308  0.12213616     1.06420
C2356       C  0.65552678  0.77923316  0.05715849     1.06780
C2357       C  0.67372586  0.75863284  0.29965266     1.06360
C2358       C  0.67645862  0.88388893  0.36129160     1.05910
C2359       C  0.74752979  0.92426947  0.25128382     1.06340
C2360       C  0.73431486  0.80665041  0.15312894     1.05850
H2361       H  0.71538042  0.87686348  0.29387493     0.32530
O2362       O  0.70158418  0.86433259  0.26934631    -1.30010
H2363       H  0.70020185  0.82269720  0.11664558     0.32550
O2364       O  0.69088132  0.82448948  0.14535057    -1.31400
C2365       C  0.94491323  0.63641902  0.01383909     0.02780
C2366       C  0.96650495  0.65669449  0.04672586    -0.13370
C2367       C  0.98837596  0.65289236  0.06560001     0.00280
C2368       C  0.98853815  0.62882232  0.05136693    -0.11890
C2369       C  0.96720297  0.60802552  0.02053766     0.02770
C2370       C  0.94572622  0.61204488  0.00083944    -0.11310
H2371       H  0.96655775  0.67560565  0.05717448     0.08370
H2372       H  0.50602463  0.62645257  0.06353984     0.05900
H2373       H  0.93019906  0.59653875  0.97471562     0.05740
C2374       C  0.99056714  0.51968123  0.98259890     0.01940
C2375       C  0.51830970  0.52489154  0.97781217     0.01940
C2376       C  0.52229935  0.00152764  0.97750349     0.01940
C2377       C  0.49919109  0.97361189  0.98534095     0.01940
C2378       C  0.97209388  0.96919101  0.99401595     0.01940
C2379       C  0.96763164  0.99175407  0.98775980     0.01940
C2380       C  0.64765893  0.97594993  0.98879521     0.02780
C2381       C  0.67053526  0.99275654  0.95817874    -0.13370
C2382       C  0.66989848  0.51222160  0.92598072     0.00280
C2383       C  0.64640932  0.51538701  0.92434436    -0.11890
C2384       C  0.62335200  0.99865582  0.95495850     0.02770
C2385       C  0.62408122  0.97901242  0.98740444    -0.11310
H2386       H  0.68934649  0.99130296  0.96041535     0.08370
H2387       H  0.64640947  0.53128367  0.90057363     0.05900
H2388       H  0.60643538  0.96629869  0.01160002     0.05740
C2389       C  0.50337960  0.83268782  0.02634860     0.02780
C2390       C  0.50520297  0.85885423  0.02484466    -0.13370
C2391       C  0.99723748  0.86760928  0.98098312     0.00280
C2392       C  0.98437507  0.84768206  0.94112711    -0.11890
C2393       C  0.97910653  0.82014597  0.94616673     0.02770
C2394       C  0.98897747  0.81295742  0.98838959    -0.11310
H2395       H  0.51448840  0.87265453  0.05704703     0.08370
H2396       H  0.97853650  0.85312381  0.90587944     0.05900
H2397       H  0.98778197  0.79276668  0.98945982     0.05740
C2398       C  0.64323344  0.68790399  0.93746222     0.02780
C2399       C  0.66436500  0.68761421  0.90931641    -0.13370
C2400       C  0.66158312  0.66207032  0.89374136     0.00280
C2401       C  0.63691157  0.63648060  0.90501615    -0.11890
C2402       C  0.61458952  0.63609442  0.93013825     0.02770
C2403       C  0.61811712  0.66193942  0.94692862    -0.11310
H2404       H  0.68348694  0.70730713  0.90055481     0.08370
H2405       H  0.63502483  0.61674303  0.89391586     0.05900
H2406       H  0.60157848  0.66175705  0.96830688     0.05740
C2407       C  0.83828183  0.99735159  0.88350543     0.02780
C2408       C  0.81218654  0.97788148  0.90530724    -0.13370
C2409       C  0.81020651  0.95630525  0.93643716     0.00280
C2410       C  0.83403805  0.95413695  0.94486837    -0.11890
C2411       C  0.85998915  0.97376240  0.92449816     0.02770
C2412       C  0.86190631  0.99509273  0.89371343    -0.11310
H2413       H  0.79399067  0.98010558  0.89966718     0.08370
H2414       H  0.83271940  0.93800171  0.96975679     0.05900
H2415       H  0.88223496  0.51074659  0.87893872     0.05740
C2416       C  0.86208430  0.80807305  0.01334538     0.02780
C2417       C  0.83668232  0.80038305  0.03741873    -0.13370
C2418       C  0.83399900  0.82048228  0.06464321     0.00280
C2419       C  0.85697917  0.84862056  0.06744716    -0.11890
C2420       C  0.88231872  0.85639224  0.04350200     0.02770
C2421       C  0.88511950  0.83582715  0.01865669    -0.11310
H2422       H  0.81821274  0.77948310  0.03153794     0.08370
H2423       H  0.85446697  0.86474754  0.08521496     0.05900
H2424       H  0.90459590  0.84219401  0.99937515     0.05740
C2425       C  0.89166819  0.97383428  0.99177077    -0.26670
C2426       C  0.88601674  0.97450414  0.94028567    -0.14740
C2427       C  0.90642160  0.97869442  0.90500736     0.35890
C2428       C  0.93297843  0.98467104  0.92213931    -0.26110
C2429       C  0.93909130  0.98548941  0.97353950    -0.15350
C2430       C  0.91805756  0.97890575  0.00878833     0.36980
N2431       N  0.92341090  0.97702861  0.06117006    -0.89600
H2432       H  0.87583806  0.97032389  0.01883379     0.18090
H2433       H  0.94903217  0.98841949  0.89534849     0.18080
N2434       N  0.90008293  0.97698896  0.85209931    -0.88630
H2435       H  0.90526878  0.97100342  0.08173965     0.35460
H2436       H  0.93874424  0.99717212  0.07397890     0.40560
H2437       H  0.88387955  0.95625378  0.84392683     0.40180
H2438       H  0.91751999  0.98071466  0.83134798     0.35060
C2439       C  0.55156246  0.56029042  0.91742636    -0.26670
C2440       C  0.54247407  0.55406104  0.96704664    -0.14740
C2441       C  0.55643670  0.57553813  0.00424545     0.35890
C2442       C  0.57923137  0.60220130  0.99081087    -0.26110
C2443       C  0.58841108  0.60839583  0.94109763    -0.15350
C2444       C  0.57363680  0.58715732  0.90369956     0.36980
N2445       N  0.57946397  0.59226457  0.85120294    -0.89600
H2446       H  0.54076573  0.54417651  0.88855925     0.18090
H2447       H  0.59037956  0.61804816  0.01994109     0.18080
N2448       N  0.54893486  0.57096868  0.05613532    -0.88630
H2449       H  0.58929854  0.58140829  0.84004540     0.35460
H2450       H  0.59295977  0.61366084  0.84371197     0.40560
H2451       H  0.53229432  0.55043959  0.06223957     0.40180
H2452       H  0.54181969  0.58448902  0.06580699     0.35060
C2453       C  0.55600569  0.99820970  0.92292047    -0.26670
C2454       C  0.55067177  0.00594225  0.96954952    -0.14740
C2455       C  0.57071879  0.01390084  0.00941905     0.35890
C2456       C  0.59500520  0.01279561  0.00208908    -0.26110
C2457       C  0.59940363  0.00313318  0.95666683    -0.15350
C2458       C  0.57988444  0.99614157  0.91608860     0.36980
N2459       N  0.58272776  0.98567963  0.86858338    -0.89600
H2460       H  0.54051232  0.99197571  0.89253596     0.18090
H2461       H  0.60990126  0.01804729  0.03321287     0.18080
N2462       N  0.56604526  0.02059106  0.05896766    -0.88630
H2463       H  0.56532616  0.96516430  0.86368024     0.35460
H2464       H  0.60060332  0.98395288  0.86791648     0.40560
H2465       H  0.54595048  0.01763482  0.06224288     0.40180
H2466       H  0.58082304  0.04195810  0.06592687     0.35060
C2467       C  0.98408483  0.90143640  0.94467113    -0.26670
C2468       C  0.00175549  0.89687938  0.97718175    -0.14740
C2469       C  0.52244192  0.92042637  0.00656808     0.35890
C2470       C  0.52049876  0.94457234  0.01078471    -0.26110
C2471       C  0.50213933  0.94837101  0.97947364    -0.15350
C2472       C  0.98598337  0.92765786  0.94263928     0.36980
N2473       N  0.97128325  0.93327811  0.90365741    -0.89600
H2474       H  0.96841755  0.88472997  0.92064018     0.18090
H2475       H  0.53416953  0.96084772  0.03760797     0.18080
N2476       N  0.54728484  0.92212815  0.02817308    -0.88630
H2477       H  0.96034133  0.91588494  0.87940095     0.35460
H2478       H  0.98649470  0.94991370  0.88232639     0.40560
H2479       H  0.55106944  0.90712688  0.01270273     0.40180
H2480       H  0.54510356  0.91978230  0.06700905     0.35060
C2481       C  0.92625951  0.92439057  0.97378126    -0.26670
C2482       C  0.94809146  0.94076955  0.00872539    -0.14740
C2483       C  0.94678547  0.93026748  0.05758430     0.35890
C2484       C  0.92440874  0.90297466  0.06953268    -0.26110
C2485       C  0.90340737  0.88632439  0.03359860    -0.15350
C2486       C  0.90400664  0.89732539  0.98565152     0.36980
N2487       N  0.88228185  0.88053048  0.94878446    -0.89600
H2488       H  0.92684032  0.93252726  0.93664925     0.18090
H2489       H  0.92369148  0.89440667  0.10639580     0.18080
N2490       N  0.96777567  0.94758548  0.09507828    -0.88630
H2491       H  0.88600442  0.89150829  0.91512820     0.35460
H2492       H  0.86315636  0.87726294  0.96206137     0.40560
H2493       H  0.98714999  0.95051410  0.08425513     0.40180
H2494       H  0.96318589  0.93712606  0.12940794     0.35060
C2495       C  0.48105938  0.54877023  0.03879151    -0.26670
C2496       C  0.98495500  0.54295756  0.98960272    -0.14740
C2497       C  0.97935121  0.55608140  0.94933662     0.35890
C2498       C  0.97170004  0.57621170  0.95963980    -0.26110
C2499       C  0.96902170  0.58280407  0.00926827    -0.15350
C2500       C  0.97272508  0.56809807  0.04906871     0.36980
N2501       N  0.46842547  0.57329739  0.09999704    -0.89600
H2502       H  0.48423508  0.53780142  0.06948987     0.18090
H2503       H  0.96875639  0.58743394  0.92911164     0.18080
N2504       N  0.98080787  0.54853356  0.89848237    -0.88630
H2505       H  0.47221880  0.56094911  0.12486570     0.35460
H2506       H  0.44708268  0.56683633  0.10304642     0.40560
H2507       H  0.00189956  0.55546708  0.89144895     0.40180
H2508       H  0.97491102  0.55924957  0.87350946     0.35060
C2509       C  0.62686470  0.72160991  0.95813413    -0.26670
C2510       C  0.64831132  0.71504120  0.95995622    -0.14740
C2511       C  0.67406103  0.73389045  0.98565684     0.35890
C2512       C  0.67719268  0.75779698  0.01023575    -0.26110
C2513       C  0.65489755  0.76294874  0.01236486    -0.15350
C2514       C  0.62989815  0.74540462  0.98360089     0.36980
N2515       N  0.60676240  0.75021695  0.98128204    -0.89600
H2516       H  0.60725869  0.70774370  0.93771965     0.18090
H2517       H  0.69627779  0.77100393  0.03256224     0.18080
N2518       N  0.69623329  0.72766597  0.99017593    -0.88630
H2519       H  0.60298126  0.75249655  0.94350152     0.35460
H2520       H  0.61251132  0.76946578  0.99831173     0.40560
H2521       H  0.68852859  0.70926871  0.01128036     0.40180
H2522       H  0.71371810  0.74363993  0.01016400     0.35060
C2523       C  0.76744894  0.82226663  0.08434645    -0.26670
C2524       C  0.75506734  0.80355316  0.12441234    -0.14740
C2525       C  0.76702131  0.78788730  0.14161005     0.35890
C2526       C  0.79228024  0.79262661  0.12008524    -0.26110
C2527       C  0.80585618  0.81323285  0.08291471    -0.15350
C2528       C  0.79268379  0.82733873  0.06355781     0.36980
N2529       N  0.80549315  0.84740134  0.02380103    -0.89600
H2530       H  0.75813775  0.83424875  0.07111514     0.18090
H2531       H  0.80216987  0.78134574  0.13402733     0.18080
N2532       N  0.75426028  0.76829151  0.18194328    -0.88630
H2533       H  0.79353868  0.85653186  0.01470468     0.35460
H2534       H  0.80527921  0.83632618  0.99191888     0.40560
H2535       H  0.75567973  0.77983439  0.21400159     0.40180
H2536       H  0.76568999  0.75847704  0.19007979     0.35060
C2537       C  0.53845931  0.80373929  0.10911573    -0.26670
C2538       C  0.56596326  0.81823952  0.08964036    -0.14740
C2539       C  0.57244401  0.83847073  0.05163077     0.35890
C2540       C  0.55173276  0.84398397  0.03507311    -0.26110
C2541       C  0.52457197  0.82969555  0.05471139    -0.15350
C2542       C  0.51759742  0.80904011  0.09175773     0.36980
N2543       N  0.48991560  0.79344114  0.11286486    -0.89600
H2544       H  0.53311115  0.78829546  0.13842551     0.18090
H2545       H  0.55656439  0.85910507  0.00529713     0.18080
N2546       N  0.60014382  0.85402420  0.03070109    -0.88630
H2547       H  0.48099338  0.77223768  0.10246660     0.35460
H2548       H  0.97661039  0.80001153  0.09833339     0.40560
H2549       H  0.61344100  0.86819397  0.05848358     0.40180
H2550       H  0.60056613  0.86641448  0.00070176     0.35060
C2551       C  0.52829441  0.70249753  0.07837200    -0.26670
C2552       C  0.51303326  0.67479628  0.09611852    -0.14740
C2553       C  0.52352163  0.66763182  0.13916060     0.35890
C2554       C  0.54941514  0.68811278  0.16230822    -0.26110
C2555       C  0.56470177  0.71562820  0.14378853    -0.15350
C2556       C  0.55377125  0.72295666  0.10197844     0.36980
N2557       N  0.56845984  0.75155903  0.08439021    -0.89600
H2558       H  0.52058892  0.70808257  0.04533568     0.18090
H2559       H  0.55721261  0.68287756  0.19564589     0.18080
N2560       N  0.50764721  0.63966422  0.15946447    -0.88630
H2561       H  0.55814525  0.75355652  0.05279163     0.35460
H2562       H  0.58847835  0.75643387  0.07327057     0.40560
H2563       H  0.98844563  0.63665295  0.17175309     0.40180
H2564       H  0.51812674  0.63781999  0.19096326     0.35060
C2565       C  0.76260144  0.92948555  0.04760121    -0.26670
C2566       C  0.74798532  0.90020442  0.03900351    -0.14740
C2567       C  0.75114793  0.88966619  0.99271649     0.35890
C2568       C  0.76981367  0.90877420  0.95736240    -0.26110
C2569       C  0.78517390  0.93801828  0.96686667    -0.15350
C2570       C  0.78104950  0.94839308  0.01216841     0.36980
N2571       N  0.79637411  0.97798040  0.02410171    -0.89600
H2572       H  0.75994063  0.93772174  0.08255930     0.18090
H2573       H  0.77344436  0.90064297  0.92321712     0.18080
N2574       N  0.73665557  0.85994488  0.98087867    -0.88630
H2575       H  0.79176613  0.98842314  0.99631697     0.35460
H2576       H  0.81804354  0.98544264  0.02373693     0.40560
H2577       H  0.72427540  0.84759555  0.01034041     0.40180
H2578       H  0.75197089  0.85455674  0.97581140     0.35060
C2579       C  0.66242455  0.92116039  0.03782320    -0.26670
C2580       C  0.65972008  0.92274501  0.08993784    -0.14740
C2581       C  0.65138281  0.94113492  0.10848528     0.35890
C2582       C  0.64649037  0.95779214  0.07484734    -0.26110
C2583       C  0.64946714  0.95606726  0.02304880    -0.15350
C2584       C  0.65679868  0.93707051  0.00449731     0.36980
N2585       N  0.65821799  0.93364297  0.95156511    -0.89600
H2586       H  0.66847830  0.90703704  0.02228658     0.18090
H2587       H  0.64085727  0.97246387  0.08928278     0.18080
N2588       N  0.64744416  0.94271425  0.16101369    -0.88630
H2589       H  0.64395521  0.91246038  0.94211849     0.35460
H2590       H  0.67860327  0.93816463  0.94374729     0.40560
H2591       H  0.62656350  0.93746223  0.16603216     0.40180
H2592       H  0.66085523  0.96364059  0.17294083     0.35060
C2593       C  0.80138049  0.83788218  0.38809034    -0.26670
C2594       C  0.80201379  0.84904743  0.43567492    -0.14740
C2595       C  0.78483511  0.86039683  0.44469141     0.35890
C2596       C  0.76739169  0.86016387  0.40595499    -0.26110
C2597       C  0.76609438  0.84850750  0.35835554    -0.15350
C2598       C  0.78332875  0.83701539  0.34939323     0.36980
N2599       N  0.78225267  0.82309967  0.30320726    -0.89600
H2600       H  0.81495703  0.82957319  0.38108862     0.18090
H2601       H  0.75426094  0.86893144  0.41350951     0.18080
N2602       N  0.78473450  0.87263863  0.49221589    -0.88630
H2603       H  0.80157214  0.83558064  0.28556395     0.35460
H2604       H  0.76634440  0.82090106  0.27864158     0.40560
H2605       H  0.79835402  0.87163458  0.51862634     0.40180
H2606       H  0.76436748  0.86053008  0.50639809     0.35060
C2607       C  0.65923581  0.69452424  0.37385167    -0.26670
C2608       C  0.67994017  0.68957573  0.35515801    -0.14740
C2609       C  0.69936517  0.70853297  0.32002938     0.35890
C2610       C  0.69789306  0.73205872  0.30570085    -0.26110
C2611       C  0.67693213  0.73666464  0.32396468    -0.15350
C2612       C  0.65691933  0.71725193  0.35770231     0.36980
N2613       N  0.63350009  0.71917535  0.37502849    -0.89600
H2614       H  0.64434620  0.68031296  0.40112482     0.18090
H2615       H  0.71253548  0.74628810  0.27813591     0.18080
N2616       N  0.71963604  0.70388128  0.29593583    -0.88630
H2617       H  0.61484930  0.70094740  0.36288214     0.35460
H2618       H  0.63297527  0.73605599  0.35895678     0.40560
H2619       H  0.71662597  0.68410044  0.30421184     0.40180
H2620       H  0.73978883  0.71927793  0.30925048     0.35060
C2621       C  0.56865810  0.87723717  0.37809999    -0.26670
C2622       C  0.54429672  0.85125177  0.39142034    -0.14740
C2623       C  0.53985778  0.82639439  0.36823179     0.35890
C2624       C  0.55957400  0.82779565  0.33459680    -0.26110
C2625       C  0.58329247  0.85372790  0.31979237    -0.15350
C2626       C  0.58718238  0.87881481  0.34075588     0.36980
N2627       N  0.60907718  0.90573552  0.32297901    -0.89600
H2628       H  0.57312719  0.89670453  0.39586236     0.18090
H2629       H  0.55563219  0.80791450  0.31936436     0.18080
N2630       N  0.51480417  0.79956822  0.37676876    -0.88630
H2631       H  0.60834481  0.92205330  0.34111203     0.35460
H2632       H  0.60471102  0.90695978  0.28503897     0.40560
H2633       H  0.52091149  0.78579272  0.39060376     0.40180
H2634       H  0.50419479  0.79151948  0.34234797     0.35060
C2635       C  0.78049594  0.97559763  0.27766638    -0.26670
C2636       C  0.77169933  0.94688922  0.28158544    -0.14740
C2637       C  0.78626611  0.93928140  0.31655600     0.35890
C2638       C  0.80821211  0.95945037  0.34637652    -0.26110
C2639       C  0.81745095  0.98799104  0.34255287    -0.15350
C2640       C  0.80374306  0.99642990  0.30684950     0.36980
N2641       N  0.81300266  0.52560988  0.29850015    -0.89600
H2642       H  0.76982765  0.98194771  0.25104122     0.18090
H2643       H  0.81771874  0.95236884  0.37417345     0.18080
N2644       N  0.77861678  0.91080082  0.32477015    -0.88630
H2645       H  0.81845735  0.52983979  0.26082721     0.35460
H2646       H  0.83154453  0.53898187  0.31898004     0.40560
H2647       H  0.78252855  0.90305204  0.29229556     0.40180
H2648       H  0.75731742  0.89926668  0.33399064     0.35060
C2649       C  0.66690025  0.92281757  0.37147458    -0.26670
C2650       C  0.66890093  0.90100606  0.39553729    -0.14740
C2651       C  0.66465054  0.89849499  0.44824446     0.35890
C2652       C  0.65846937  0.91728055  0.47371095    -0.26110
C2653       C  0.65683240  0.93896462  0.44854375    -0.15350
C2654       C  0.66195821  0.94193341  0.39666063     0.36980
N2655       N  0.66270378  0.96428669  0.36762409    -0.89600
H2656       H  0.66955511  0.92570786  0.33134646     0.18090
H2657       H  0.65520448  0.91508407  0.51377256     0.18080
N2658       N  0.66748865  0.87834934  0.47769789    -0.88630
H2659       H  0.68283968  0.97608510  0.35240645     0.35460
H2660       H  0.66038326  0.97848179  0.38951020     0.40560
H2661       H  0.67381440  0.86701324  0.45616867     0.40180
H2662       H  0.64755711  0.86386426  0.49158080     0.35060
C2663       C  0.58759324  0.72927752  0.46074006    -0.26670
C2664       C  0.55842924  0.71281309  0.45418347    -0.14740
C2665       C  0.54452214  0.71899317  0.41602354     0.35890
C2666       C  0.56058559  0.74133273  0.38333868    -0.26110
C2667       C  0.59015694  0.75777746  0.38888028    -0.15350
C2668       C  0.60371290  0.75215134  0.42956129     0.36980
N2669       N  0.63380204  0.76912565  0.43892163    -0.89600
H2670       H  0.59775125  0.72455660  0.49117680     0.18090
H2671       H  0.55000368  0.74555688  0.35301117     0.18080
N2672       N  0.51421554  0.70236959  0.41048320    -0.88630
H2673       H  0.64024288  0.76059026  0.46749980     0.35460
H2674       H  0.63825517  0.78880974  0.45219565     0.40560
H2675       H  0.50864732  0.68179974  0.40077116     0.40180
H2676       H  0.50726272  0.70982368  0.38087449     0.35060
C2677       C  0.91140860  0.91090983  0.44926716    -0.26670
C2678       C  0.90004926  0.90692121  0.49734010    -0.14740
C2679       C  0.91376054  0.92911330  0.53320608     0.35890
C2680       C  0.93882877  0.95403844  0.52032765    -0.26110
C2681       C  0.95042709  0.95771279  0.47246587    -0.15350
C2682       C  0.93604375  0.93590064  0.43611067     0.36980
N2683       N  0.94516202  0.93846551  0.38525834    -0.89600
H2684       H  0.90056300  0.89443479  0.42099345     0.18090
H2685       H  0.94974364  0.97059292  0.54841727     0.18080
N2686       N  0.90287809  0.92749014  0.58241786    -0.88630
H2687       H  0.94901936  0.92222396  0.37816901     0.35460
H2688       H  0.96403882  0.95748517  0.37961555     0.40560
H2689       H  0.88393649  0.90847236  0.58770942     0.40180
H2690       H  0.89814542  0.94341609  0.58531427     0.35060
C2691       C  0.50889230  0.60265862  0.45955140    -0.26670
C2692       C  0.51992522  0.61422987  0.50694123    -0.14740
C2693       C  0.52727137  0.59960006  0.54111436     0.35890
C2694       C  0.52439924  0.57386937  0.52599222    -0.26110
C2695       C  0.51423019  0.56260360  0.47755718    -0.15350
C2696       C  0.50591129  0.57723882  0.44428816     0.36980
N2697       N  0.49643265  0.56840971  0.39351682    -0.89600
H2698       H  0.50313943  0.61397629  0.43340501     0.18090
H2699       H  0.03006167  0.56246934  0.55204945     0.18080
N2700       N  0.53769237  0.61096588  0.59059994    -0.88630
H2701       H  0.47540927  0.56320729  0.39000180     0.35460
H2702       H  0.49760206  0.55090467  0.38407810     0.40560
H2703       H  0.55699389  0.62994956  0.58684747     0.40180
H2704       H  0.04197263  0.59747698  0.61121498     0.35060
C2705       C  0.59995377  0.59940046  0.41742591    -0.26670
C2706       C  0.62331582  0.59909692  0.43939049    -0.14740
C2707       C  0.61650595  0.57756673  0.47564663     0.35890
C2708       C  0.58786472  0.55898550  0.48877881    -0.26110
C2709       C  0.56515904  0.55699010  0.46010876    -0.15350
C2710       C  0.57204478  0.57740443  0.42295871     0.36980
N2711       N  0.55124739  0.57516698  0.38759845    -0.89600
H2712       H  0.60226260  0.61600512  0.39341305     0.18090
H2713       H  0.58329943  0.54440350  0.51917098     0.18080
N2714       N  0.63786014  0.57328840  0.49767100    -0.88630
H2715       H  0.55696147  0.57228195  0.35198094     0.35460
H2716       H  0.55215710  0.59451051  0.38740158     0.40560
H2717       H  0.64539387  0.56620891  0.46903359     0.40180
H2718       H  0.62921769  0.55713999  0.52411092     0.35060
C2719       C  0.94568104  0.51876244  0.49508518    -0.26670
C2720       C  0.95725490  0.51263086  0.45442509    -0.14740
C2721       C  0.94301079  0.00650523  0.40733201     0.35890
C2722       C  0.92017406  0.51069181  0.40048584    -0.26110
C2723       C  0.90822683  0.51701895  0.44087880    -0.15350
C2724       C  0.92079866  0.51963634  0.48963182     0.36980
N2725       N  0.90769016  0.52021189  0.53505752    -0.89600
H2726       H  0.95531996  0.52150181  0.53206623     0.18090
H2727       H  0.91155219  0.00847955  0.36290795     0.18080
N2728       N  0.95082127  0.99485506  0.36697662    -0.88630
H2729       H  0.88565858  0.50780946  0.53137696     0.35460
H2730       H  0.91450115  0.54108806  0.54473144     0.40560
H2731       H  0.97154619  0.00899054  0.35662611     0.40180
H2732       H  0.93797041  0.99114947  0.33513232     0.35060
C2733       C  0.59137981  0.49195305  0.42974510    -0.26670
C2734       C  0.59493161  0.48106560  0.47520827    -0.14740
C2735       C  0.57757625  0.97817175  0.51584914     0.35890
C2736       C  0.55860718  0.98760298  0.51101930    -0.26110
C2737       C  0.55461045  0.49816146  0.46576524    -0.15350
C2738       C  0.57118978  0.50018140  0.42424445     0.36980
N2739       N  0.56831628  0.51054904  0.37642583    -0.89600
H2740       H  0.60505114  0.49496815  0.39880566     0.18090
H2741       H  0.54673080  0.98666005  0.54334482     0.18080
N2742       N  0.57911236  0.96641354  0.56314536    -0.88630
H2743       H  0.58729447  0.52947217  0.36999569     0.35460
H2744       H  0.55241203  0.51536464  0.37647561     0.40560
H2745       H  0.59275305  0.95869771  0.56193275     0.40180
H2746       H  0.55905977  0.94879353  0.56951769     0.35060
C2747       C  0.99006607  0.90822481  0.49650743    -0.26670
C2748       C  0.99483581  0.89963215  0.45000731    -0.14740
C2749       C  0.49998710  0.91678094  0.40764178     0.35890
C2750       C  0.50302694  0.94318022  0.41355620    -0.26110
C2751       C  0.99858569  0.95173749  0.45999774    -0.15350
C2752       C  0.99109277  0.93382172  0.50163817     0.36980
N2753       N  0.98428227  0.94143794  0.54852738    -0.89600
H2754       H  0.98617448  0.89529736  0.52936512     0.18090
H2755       H  0.50826560  0.95690469  0.38141784     0.18080
N2756       N  0.50156154  0.90732470  0.35850709    -0.88630
H2757       H  0.97893848  0.92564212  0.57510576     0.35460
H2758       H  0.00207887  0.95966489  0.56272011     0.40560
H2759       H  0.52121460  0.92203500  0.34386110     0.40180
H2760       H  0.48587157  0.90720136  0.33576039     0.35060
C2761       C  0.71934284  0.67617962  0.80151684    -0.26670
C2762       C  0.73214634  0.66272527  0.82505165    -0.14740
C2763       C  0.72090640  0.64827829  0.87044875     0.35890
C2764       C  0.69778038  0.64829763  0.89160228    -0.26110
C2765       C  0.68525402  0.66203104  0.86825447    -0.15350
C2766       C  0.69605273  0.67587497  0.82213825     0.36980
N2767       N  0.68345876  0.68893751  0.79410531    -0.89600
H2768       H  0.72744245  0.68705413  0.76641530     0.18090
H2769       H  0.68947100  0.63757193  0.92674909     0.18080
N2770       N  0.73258805  0.63320189  0.89449113    -0.88630
H2771       H  0.69777723  0.71075522  0.79489411     0.35460
H2772       H  0.66471804  0.68525271  0.80972625     0.40560
H2773       H  0.72877716  0.61659822  0.87053908     0.40180
H2774       H  0.72206138  0.62394058  0.92765338     0.35060
C2775       C  0.84904892  0.74242391  0.94378552    -0.26670
C2776       C  0.85913231  0.75329324  0.89572532    -0.14740
C2777       C  0.87341097  0.78287656  0.88888222     0.35890
C2778       C  0.87443332  0.80019426  0.92816335    -0.26110
C2779       C  0.86299149  0.78906476  0.97519377    -0.15350
C2780       C  0.85122873  0.76001146  0.98364662     0.36980
N2781       N  0.84138452  0.74845529  0.03250212    -0.89600
H2782       H  0.83906880  0.71997755  0.95047407     0.18090
H2783       H  0.88365927  0.82255250  0.92139524     0.18080
N2784       N  0.88648844  0.79537084  0.84216350    -0.88630
H2785       H  0.83320927  0.72667282  0.03239812     0.35460
H2786       H  0.85892594  0.75748172  0.05711478     0.40560
H2787       H  0.90361143  0.79248260  0.83834675     0.40180
H2788       H  0.89505234  0.81721894  0.84299519     0.35060
C2789       C  0.94389859  0.67738671  0.57241398    -0.26670
C2790       C  0.94327660  0.67805923  0.62490987    -0.14740
C2791       C  0.96558717  0.67891340  0.65364461     0.35890
C2792       C  0.98593073  0.67570137  0.62923992    -0.26110
C2793       C  0.98462557  0.67225083  0.57724067    -0.15350
C2794       C  0.96351522  0.67329899  0.54821777     0.36980
N2795       N  0.96091532  0.66974355  0.49445055    -0.89600
H2796       H  0.92777181  0.67797867  0.54961941     0.18090
H2797       H  0.50302361  0.67613682  0.65066855     0.18080
N2798       N  0.96773682  0.68323753  0.70711051    -0.88630
H2799       H  0.94078893  0.65241981  0.48587408     0.35460
H2800       H  0.97496404  0.66437714  0.48035716     0.40560
H2801       H  0.97154462  0.70354089  0.71382461     0.40180
H2802       H  0.98518004  0.68293482  0.72217842     0.35060
C2803       C  0.96530974  0.80971491  0.56687720    -0.26670
C2804       C  0.96311729  0.80471069  0.51496278    -0.14740
C2805       C  0.93967005  0.77992134  0.49493606     0.35890
C2806       C  0.91903637  0.76034552  0.52740771    -0.26110
C2807       C  0.92106156  0.76513864  0.57971269    -0.15350
C2808       C  0.94476252  0.79013251  0.59954358     0.36980
N2809       N  0.94824556  0.79538732  0.65268335    -0.89600
H2810       H  0.98305720  0.82923596  0.58185564     0.18090
H2811       H  0.90101757  0.74136943  0.51151665     0.18080
N2812       N  0.93660932  0.77504274  0.44161090    -0.88630
H2813       H  0.96658724  0.81482044  0.66094800     0.35460
H2814       H  0.95131197  0.77990036  0.66858505     0.40560
H2815       H  0.93383215  0.79064357  0.42529486     0.40180
H2816       H  0.91829259  0.75567517  0.43289331     0.35060
C2817       C  0.92690622  0.75325729  0.87734688    -0.26670
C2818       C  0.94099918  0.75608827  0.83269331    -0.14740
C2819       C  0.96741556  0.78071338  0.82447037     0.35890
C2820       C  0.97945209  0.80184009  0.86157572    -0.26110
C2821       C  0.96517697  0.79884362  0.90620786    -0.15350
C2822       C  0.93872192  0.77419305  0.91423199     0.36980
N2823       N  0.92303705  0.77030032  0.95875723    -0.89600
H2824       H  0.90594073  0.73499938  0.88280880     0.18090
H2825       H  0.99998866  0.82059702  0.85570605     0.18080
N2826       N  0.98220769  0.78476324  0.77889507    -0.88630
H2827       H  0.92025170  0.78746845  0.96281443     0.35460
H2828       H  0.93465404  0.76986614  0.98973772     0.40560
H2829       H  0.96945275  0.78444896  0.74923991     0.40180
H2830       H  0.98519388  0.76775791  0.77416598     0.35060
C2831       C  0.87702541  0.62693651  0.94973230    -0.26670
C2832       C  0.88726331  0.65386630  0.92916304    -0.14740
C2833       C  0.91529504  0.67530690  0.94165053     0.35890
C2834       C  0.93289117  0.66946923  0.97137789    -0.26110
C2835       C  0.92354450  0.64219745  0.98923803    -0.15350
C2836       C  0.89471803  0.62092754  0.97997210     0.36980
N2837       N  0.88366443  0.59312926  0.00006883    -0.89600
H2838       H  0.85584511  0.61003607  0.93931117     0.18090
H2839       H  0.95471932  0.68619410  0.97758522     0.18080
N2840       N  0.92672429  0.70292176  0.92120220    -0.88630
H2841       H  0.86237154  0.57994417  0.98949428     0.35460
H2842       H  0.88441737  0.59496505  0.03915686     0.40560
H2843       H  0.94419707  0.70741280  0.89980296     0.40180
H2844       H  0.93388468  0.71740987  0.95105001     0.35060
C2845       C  0.84610821  0.79508635  0.56184372    -0.26670
C2846       C  0.83455137  0.81132068  0.57537550    -0.14740
C2847       C  0.81696309  0.80326875  0.61786321     0.35890
C2848       C  0.81166515  0.77928331  0.64558012    -0.26110
C2849       C  0.82325127  0.76301270  0.63167216    -0.15350
C2850       C  0.84048790  0.77101257  0.58869809     0.36980
N2851       N  0.85292908  0.75537925  0.57127690    -0.89600
H2852       H  0.85926973  0.80086006  0.52913688     0.18090
H2853       H  0.79904968  0.77379049  0.67892768     0.18080
N2854       N  0.80459497  0.81908108  0.63450580    -0.88630
H2855       H  0.84631458  0.74936583  0.53399717     0.35460
H2856       H  0.84544936  0.73655241  0.59070540     0.40560
H2857       H  0.81037146  0.83660763  0.61198424     0.40180
H2858       H  0.81289755  0.82700445  0.67039020     0.35060
C2859       C  0.74877250  0.68330543  0.48270054    -0.26670
C2860       C  0.73237371  0.65695491  0.45876245    -0.14740
C2861       C  0.74223096  0.63785697  0.45930211     0.35890
C2862       C  0.76676192  0.64467472  0.48768273    -0.26110
C2863       C  0.78172756  0.67017078  0.51488707    -0.15350
C2864       C  0.77315163  0.68999926  0.51047989     0.36980
N2865       N  0.78785969  0.71610902  0.53800578    -0.89600
H2866       H  0.74178341  0.69832592  0.48221300     0.18090
H2867       H  0.77285494  0.62904876  0.49157962     0.18080
N2868       N  0.72794439  0.61146717  0.43216815    -0.88630
H2869       H  0.77365955  0.71678779  0.56241948     0.35460
H2870       H  0.79424946  0.73259456  0.51251192     0.40560
H2871       H  0.71169070  0.60968384  0.40890448     0.40180
H2872       H  0.71868570  0.59532320  0.45849783     0.35060
C2873       C  0.83102777  0.53992014  0.77890073    -0.26670
C2874       C  0.85249969  0.56783191  0.79184086    -0.14740
C2875       C  0.87015137  0.57211206  0.83422508     0.35890
C2876       C  0.86464665  0.54886154  0.86405531    -0.26110
C2877       C  0.84224286  0.52132604  0.85226118    -0.15350
C2878       C  0.82576430  0.51686407  0.80866263     0.36980
N2879       N  0.80379214  0.48890133  0.79420069    -0.89600
H2880       H  0.81744396  0.53592367  0.74621362     0.18090
H2881       H  0.87776271  0.55227828  0.89719411     0.18080
N2882       N  0.89285311  0.59998831  0.84812492    -0.88630
H2883       H  0.80812123  0.48466939  0.75837961     0.35460
H2884       H  0.78470619  0.98853352  0.79199055     0.40560
H2885       H  0.90794918  0.60678825  0.82015707     0.40180
H2886       H  0.90299948  0.59947160  0.88126845     0.35060
C2887       C  0.72548682  0.54495137  0.82672173    -0.26670
C2888       C  0.74674167  0.56903192  0.85269054    -0.14740
C2889       C  0.74275350  0.57320939  0.90356835     0.35890
C2890       C  0.71698421  0.55450893  0.92568516    -0.26110
C2891       C  0.69550199  0.53139744  0.89888660    -0.15350
C2892       C  0.69988756  0.52601477  0.84923234     0.36980
N2893       N  0.67911357  0.50170698  0.82075337    -0.89600
H2894       H  0.72829870  0.54117136  0.78803768     0.18090
H2895       H  0.71361953  0.55780441  0.96437186     0.18080
N2896       N  0.76468015  0.59644066  0.93261338    -0.88630
H2897       H  0.67273643  0.50898631  0.79002983     0.35460
H2898       H  0.66100732  0.98895643  0.84132531     0.40560
H2899       H  0.78163614  0.59318960  0.93633432     0.40180
H2900       H  0.75796369  0.59665397  0.96889478     0.35060
C2901       C  0.72945571  0.57199053  0.57030114    -0.26670
C2902       C  0.72254407  0.57398533  0.61995743    -0.14740
C2903       C  0.69785259  0.55122613  0.64019600     0.35890
C2904       C  0.68029088  0.52721882  0.60999227    -0.26110
C2905       C  0.68760798  0.52492771  0.56071305    -0.15350
C2906       C  0.71239066  0.54766160  0.54059516     0.36980
N2907       N  0.71988749  0.54615266  0.48988919    -0.89600
H2908       H  0.74908193  0.58898952  0.55550365     0.18090
H2909       H  0.66081733  0.51007094  0.62494526     0.18080
N2910       N  0.69082851  0.55252721  0.69132700    -0.88830
H2911       H  0.73845540  0.56484525  0.48056224     0.35460
H2912       H  0.72456405  0.53016136  0.48817001     0.40560
H2913       H  0.70645721  0.55282536  0.71448452     0.40180
H2914       H  0.67177479  0.53424365  0.70024792     0.35060
C2915       C  0.86659962  0.58002025  0.50575422    -0.26670
C2916       C  0.84484999  0.55338226  0.48941063    -0.14740
C2917       C  0.81760624  0.54188283  0.50990295     0.35890
C2918       C  0.81261339  0.55769697  0.54501037    -0.26110
C2919       C  0.83462060  0.58442295  0.56088180    -0.15350
C2920       C  0.86207046  0.59504210  0.54251737     0.36980
N2921       N  0.88560305  0.62076956  0.56258098    -0.89600
H2922       H  0.88751282  0.58908437  0.49035603     0.18090
H2923       H  0.79160604  0.54912350  0.55974251     0.18080
N2924       N  0.79520969  0.51396125  0.49632773    -0.88630
H2925       H  0.90427716  0.62474069  0.54615429     0.35460
H2926       H  0.88774478  0.61749149  0.60063141     0.40560
H2927       H  0.77834364  0.51534545  0.48140162     0.40180
H2928       H  0.78837106  0.50197468  0.52898743     0.35060
loop_ 
_geom_bond_atom_site_label_1 
_geom_bond_atom_site_label_2 
_geom_bond_distance 
_geom_bond_site_symmetry_2 
_ccdc_geom_bond_type 
O1          Zr37   2.405       .  S
O1           C12   1.287       .  A
O2          Zr36   2.408       .  S
O2           C13   1.287       .  A
O3           Zr9   2.399       .  S
O3           C14   1.286       .  A
O4           Zr9   2.396       .  S
O4           C15   1.283       .  A
O5          Zr39   2.504       .  S
O5           C15   1.304       .  A
O6          Zr38   2.481       .  S
O6           C14   1.299       .  A
O7           Zr9   2.439       .  S
O7           C13   1.293       .  A
O8           Zr9   2.461       .  S
O8           C12   1.295       .  A
Zr9          O10   2.341       .  S
Zr9          O11   2.332       .  S
Zr9          O19   2.327       .  S
Zr9          O17   2.337       .  S
O10         Zr36   2.354       .  S
O10         Zr39   2.337       .  S
O11         Zr37   2.351       .  S
O11         Zr38   2.340       .  S
C12         C723   1.475       .  S
C13         C692   1.480       .  S
C14         C678   1.492       .  S
C15         C706   1.476       .  S
H16          O17   0.965       .  S
O17         Zr36   2.325       .  S
O17         Zr38   2.331       .  S
H18          O19   0.964       .  S
O19         Zr37   2.323       .  S
O19         Zr39   2.349       .  S
O20         Zr36   2.415       .  S
O20          C43   1.289       .  A
O21         Zr37   2.413       .  S
O21          C44   1.288       .  A
O22         Zr38   2.389       .  S
O22          C45   1.283       .  A
O23         Zr39   2.442       .  S
O23          C46   1.295       .  A
O24         Zr39   2.378       .  S
O24          C47   1.282       .  A
O25         Zr38   2.399       .  S
O25          C48   1.286       .  A
O26         Zr40   2.391       .  S
O26          C49   1.281       .  A
O27         Zr40   2.413       .  S
O27          C50   1.287       .  A
O28         Zr38   2.465       .  S
O28          C49   1.295       .  A
O29         Zr39   2.496       .  S
O29          C50   1.302       .  A
O30         Zr36   2.536       .  S
O30          C45   1.310       .  A
O31         Zr37   2.440       .  S
O31          C48   1.295       .  A
O32         Zr37   2.493       .  S
O32          C47   1.302       .  A
O33         Zr36   2.458       .  S
O33          C46   1.297       .  A
O34         Zr40   2.451       .  S
O34          C43   1.295       .  A
O35         Zr40   2.476       .  S
O35          C44   1.299       .  A
Zr36         O42   2.318       .  S
Zr36         O54   2.372       .  S
Zr37         O41   2.324       .  S
Zr37         O52   2.345       .  S
Zr38         O42   2.326       .  S
Zr38         O52   2.347       .  S
Zr39         O41   2.338       .  S
Zr39         O54   2.355       .  S
Zr40         O41   2.321       .  S
Zr40         O42   2.341       .  S
Zr40         O54   2.350       .  S
Zr40         O52   2.326       .  S
C43         C580   1.491       .  S
C44         C611   1.495       .  S
C45         C636   1.495       .  S
C46         C566   1.492       .  S
C47         C667   1.469       .  S
C48         C594   1.476       .  S
C49         C622   1.457       .  S
C50         C653   1.486       .  S
H51          O52   0.965       .  S
H53          O54   0.966       .  S
C55         C485   1.498       .  S
C55          C56   1.406       .  A
C55         C792   1.406       .  A
C56         C555   1.472       .  S
C56        C2253   1.414       .  A
C57         C541   1.508   1_545  S
C57          C58   1.427       .  A
C57        C2252   1.414   1_545  A
C58         C513   1.519       .  S
C58          C59   1.443       .  A
C59         C499   1.495       .  S
C59        C1524   1.431   1_455  A
C60         C524   1.500       .  S
C60         C787   1.406   1_545  A
C60        C1523   1.431       .  A
C61        C2061   1.455   1_455  S
C61          C62   1.401       .  A
C61          C66   1.391       .  A
C62          C63   1.401       .  A
C62          H67   1.084   1_455  S
C63         C496   1.470       .  S
C63          C64   1.404       .  A
C64          C65   1.397       .  A
C64          H68   1.084       .  S
C65         C468   1.459       .  S
C65          C66   1.387       .  A
C66          H69   1.085       .  S
C70         C457   1.509       .  S
C70          C75   1.422       .  A
C70         C803   1.417       .  A
C71          C72   1.415   1_565  A
C71         C802   1.417       .  A
C71          H76   1.083       .  S
C72         C709   1.487       .  S
C72          C73   1.393       .  A
C73          C74   1.395   1_545  A
C73          H77   1.085       .  S
C74         C538   1.489       .  S
C74         C807   1.413       .  A
C75         C806   1.413       .  A
C75          H78   1.083       .  S
C79         C720   1.486       .  S
C79          C80   1.410       .  A
C79          C84   1.398       .  A
C80          C81   1.406       .  A
C80          H85   1.074       .  S
C81         C527   1.520       .  S
C81          C82   1.416       .  A
C82          C83   1.415       .  A
C82         H818   1.081   1_545  S
C83        C1175   1.490   1_545  S
C83          C84   1.397       .  A
C84          H87   1.083       .  S
H86         C814   1.081       .  S
C88         C426   1.507       .  S
C88          C93   1.403       .  A
C88        C1553   1.422       .  A
C89          C90   1.411       .  A
C89        C1552   1.422       .  A
C89          H94   1.081       .  S
C90         C608   1.479       .  S
C90          C91   1.392       .  A
C91          C92   1.395       .  A
C91          H95   1.085       .  S
C92         C552   1.475       .  S
C92        C1557   1.398       .  A
C93        C1556   1.398   1_455  A
C93          H96   1.078       .  S
C97         C664   1.485       .  S
C97          C98   1.417       .  A
C97         C102   1.397       .  A
C98          C99   1.426       .  A
C98         H103   1.073       .  S
C99         C510   1.538       .  S
C99         C100   1.418       .  A
C100        C101   1.394       .  A
C100        H104   1.075       .  S
C101        C412   1.482       .  S
C101        C102   1.388       .  A
C102        H105   1.084       .  S
C106        C650   1.490       .  S
C106        C107   1.416       .  A
C106        C111   1.407       .  A
C107        C108   1.413       .  A
C107        H112   1.083       .  S
C108        C482   1.486       .  S
C108        C109   1.396       .  A
C109        C110   1.390       .  A
C109        H113   1.085       .  S
C110        C398   1.470       .  S
C110        C111   1.402       .  A
C111        H114   1.084       .  S
O115       Zr151   2.364       .  S
O115        C126   1.276       .  A
O116       Zr150   2.443       .  S
O116        C127   1.294       .  A
O117       Zr123   2.374       .  S
O117        C128   1.282       .  A
O118       Zr123   2.393       .  S
O118        C129   1.283       .  A
O119       Zr153   2.497       .  S
O119        C129   1.302       .  A
O120       Zr152   2.514       .  S
O120        C128   1.306       .  A
O121       Zr123   2.417       .  S
O121        C127   1.289       .  A
O122       Zr123   2.475       .  S
O122        C126   1.299       .  A
Zr123       O124   2.337       .  S
Zr123       O125   2.322       .  S
Zr123       O133   2.321       .  S
Zr123       O131   2.348       .  S
O124       Zr150   2.321       .  S
O124       Zr153   2.325       .  S
O125       Zr151   2.309       .  S
O125       Zr152   2.349       .  S
C126        C471   1.483       .  S
C127        C342   1.481       .  S
C128        C429   1.498       .  S
C129        C359   1.479       .  S
H130        O131   0.964       .  S
O131       Zr150   2.351       .  S
O131       Zr152   2.338       .  S
H132        O133   0.965       .  S
O133       Zr151   2.360       .  S
O133       Zr153   2.352       .  S
O134       Zr150   2.426       .  S
O134        C157   1.290       .  A
O135       Zr151   2.376       .  S
O135        C158   1.283       .  A
O136       Zr152   2.450       .  S
O136        C159   1.295       .  A
O137       Zr153   2.397       .  S
O137        C160   1.285       .  A
O138       Zr153   2.394       .  S
O138        C161   1.286       .  A
O139       Zr152   2.374       .  S
O139        C162   1.273       .  A
O140       Zr154   2.417       .  S
O140        C163   1.288       .  A
O141       Zr154   2.395       .  S
O141        C164   1.285       .  A
O142       Zr152   2.501       .  S
O142        C163   1.303       .  A
O143       Zr153   2.490       .  S
O143        C164   1.300       .  A
O144       Zr150   2.405       .  S
O144        C159   1.288       .  A
O145       Zr151   2.574       .  S
O145        C162   1.313       .  A
O146       Zr151   2.478       .  S
O146        C161   1.301       .  A
O147       Zr150   2.498       .  S
O147        C160   1.302       .  A
O148       Zr154   2.463       .  S
O148        C157   1.297       .  A
O149       Zr154   2.490       .  S
O149        C158   1.302       .  A
Zr150       O156   2.362       .  S
Zr150       O168   2.322       .  S
Zr151       O155   2.356       .  S
Zr151       O166   2.317       .  S
Zr152       O156   2.343       .  S
Zr152       O166   2.342       .  S
Zr153       O155   2.344       .  S
Zr153       O168   2.333       .  S
Zr154       O155   2.324       .  S
Zr154       O156   2.340       .  S
Zr154       O168   2.343       .  S
Zr154       O166   2.326       .  S
C157        C370   1.476       .  S
C158        C401   1.479       .  S
C159        C384   1.481       .  S
C160        C317   1.487       .  S
C161        C415   1.466       .  S
C162        C454   1.529       .  S
C163        C440   1.493       .  S
C164        C328   1.474       .  S
H165        O166   0.961       .  S
H167        O168   0.965       .  S
C169        C639   1.513   1_554  S
C169        C170   1.423       .  A
C169        C174   1.418       .  A
C170        C171   1.414       .  A
C170        H175   1.083       .  S
C171       C1820   1.494       .  S
C171        C172   1.391       .  A
C172        C173   1.395       .  A
C172       H1640   1.085       .  S
C173        C303   1.483       .  S
C173        C174   1.409       .  A
C174        H177   1.082   1_554  S
H176       C1636   1.085   1_455  S
C178        C300   1.487       .  S
C178       C1643   1.415       .  A
C178        C915   1.410   1_545  A
C179        C244   1.500       .  S
C179       C1642   1.415   1_455  A
C179        C912   1.421       .  A
C180        C258   1.477       .  S
C180        C181   1.423   1_455  A
C180        C911   1.421       .  A
C181        C275   1.498   1_655  S
C181       C1646   1.411       .  A
C182        C286   1.497   1_556  S
C182        C183   1.403       .  A
C182       C1645   1.411       .  A
C183        C233   1.471       .  S
C183        C910   1.410       .  A
C184        C387   1.471   1_556  S
C184        C185   1.396       .  A
C184        C189   1.399       .  A
C185        C918   1.391       .  A
C185        H190   1.085       .  S
C186        C695   1.460       .  S
C186        C187   1.398       .  A
C186        C917   1.391   1_545  A
C187        C920   1.401   1_545  A
C187        H191   1.084       .  S
C188        C261   1.470       .  S
C188        C189   1.405       .  A
C188        C919   1.401       .  A
C189        H192   1.084   1_556  S
C193        C345   1.462       .  S
C193        C194   1.400       .  A
C193       C1662   1.386   1_454  A
C194       C1659   1.413   1_454  A
C194        H199   1.078       .  S
C195        C272   1.510       .  S
C195        C196   1.418       .  A
C195       C1658   1.413   1_556  A
C196        C197   1.403       .  A
C196        H200   1.080       .  S
C197        C625   1.465       .  S
C197        C198   1.387       .  A
C198       C1657   1.386   1_556  A
C198        H201   1.086       .  S
C202        C314   1.502       .  S
C202        C203   1.409       .  A
C202        C207   1.414       .  A
C203        C204   1.404       .  A
C203        H208   1.083       .  S
C204        C569   1.488       .  S
C204        C205   1.403       .  A
C205        C206   1.407       .  A
C205        H209   1.084       .  S
C206        C247   1.498       .  S
C206        C207   1.413       .  A
C207        H210   1.083       .  S
C211       C1413   1.486       .  S
C211        C212   1.414       .  A
C211        C216   1.397       .  A
C212        C213   1.412       .  A
C212        H217   1.083       .  S
C213        C373   1.479       .  S
C213        C214   1.398       .  A
C214        C215   1.395       .  A
C214        H218   1.085       .  S
C215        C230   1.471       .  S
C215        C216   1.397       .  A
C216        H951   1.084       .  S
H219        C948   1.084   1_545  S
C220        C583   1.485   1_554  S
C220        C221   1.408       .  A
C220        C225   1.402       .  A
C221        C222   1.403       .  A
C221        H226   1.083       .  S
C222        C331   1.484       .  S
C222        C223   1.410       .  A
C223        C224   1.402       .  A
C223        H227   1.084       .  S
C224        C289   1.477       .  S
C224        C225   1.397       .  A
C225        H228   1.085   1_554  S
C229        C230   1.407       .  A
C229        C234   1.401   1_556  A
C229        H236   1.083   1_556  S
C230        C231   1.408       .  A
C231        C232   1.394       .  A
C231        N238   1.438       .  S
C232        C233   1.400       .  A
C232        H237   1.084       .  S
C233        C234   1.405   1_556  A
C234        N235   1.437       .  S
N235        H239   1.045       .  S
N235        H240   1.043       .  S
N238        H241   1.046       .  S
N238        H242   1.046       .  S
C243        C244   1.403       .  A
C243        C248   1.403       .  A
C243        H250   1.084       .  S
C244        C245   1.419   1_556  A
C245        C246   1.407   1_554  A
C245        N252   1.437       .  S
C246        C247   1.406       .  A
C246        H251   1.084   1_556  S
C247        C248   1.421       .  A
C248        N249   1.437       .  S
N249        H253   1.045       .  S
N249        H254   1.043       .  S
N252        H255   1.041       .  S
N252        H256   1.045       .  S
C257        C258   1.402       .  A
C257        C262   1.399       .  A
C257        H264   1.084       .  S
C258        C259   1.414   1_556  A
C259        C260   1.394       .  A
C259        N266   1.437       .  S
C260        C261   1.401   1_554  A
C260        H265   1.085       .  S
C261        C262   1.416       .  A
C262        N263   1.439       .  S
N263        H267   1.046       .  S
N263        H268   1.042       .  S
N266        H269   1.041       .  S
N266        H270   1.045       .  S
C271        C272   1.411       .  A
C271        C276   1.402       .  A
C271        H278   1.079       .  S
C272       C1737   1.429   1_556  A
C273        C274   1.401       .  A
C273       C1736   1.429   1_554  A
C273        N280   1.436       .  S
C274        C275   1.400   1_554  A
C274        H279   1.081       .  S
C275       C1740   1.408   1_455  A
C276       C1739   1.408       .  A
C276        N277   1.437       .  S
N277        H281   1.046       .  S
N277        H282   1.045       .  S
N280        H283   1.044       .  S
N280        H284   1.045       .  S
C285        C286   1.403   1_556  A
C285        C290   1.400       .  A
C285        H292   1.081       .  S
C286        C287   1.414       .  A
C287        C288   1.410       .  A
C287        N294   1.438       .  S
C288        C289   1.401       .  A
C288        H293   1.083       .  S
C289        C290   1.409   1_554  A
C290        N291   1.438       .  S
N291        H295   1.046       .  S
N291        H296   1.046       .  S
N294        H297   1.044       .  S
N294        H298   1.046       .  S
C299       C1764   1.399   1_554  A
C299       C1768   1.397       .  A
C299        H306   1.083       .  S
C300        C301   1.413       .  A
C300       C1763   1.399   1_556  A
C301        C302   1.412       .  A
C301        N308   1.436       .  S
C302        C303   1.405   1_556  A
C302        H307   1.083       .  S
C303        C304   1.412       .  A
C304       C1763   1.397       .  A
C304       N1769   1.439       .  S
N305       C1768   1.439       .  S
N305        H309   1.046       .  S
N305        H310   1.045       .  S
N308        H311   1.042       .  S
N308        H312   1.045       .  S
C313        C314   1.410       .  A
C313        C318   1.412       .  A
C313        H320   1.084       .  S
C314        C315   1.416       .  A
C315        C316   1.405   1_556  A
C315        N322   1.439       .  S
C316        C317   1.405       .  A
C316        H321   1.085       .  S
C317        C318   1.417   1_554  A
C318        N319   1.436       .  S
N319        H323   1.046       .  S
N319        H324   1.043       .  S
N322        H325   1.046   1_556  S
N322        H326   1.046   1_556  S
C327        C328   1.405       .  A
C327        C332   1.399       .  A
C327        H334   1.085       .  S
C328        C329   1.408       .  A
C329        C330   1.415       .  A
C329        N336   1.437       .  S
C330        C331   1.409       .  A
C330        H335   1.083       .  S
C331        C332   1.408       .  A
C332        N333   1.439       .  S
N333        H337   1.045       .  S
N333        H338   1.046   1_554  S
N336        H339   1.045       .  S
N336        H340   1.046       .  S
C341        C342   1.411       .  A
C341        C346   1.400       .  A
C341        H348   1.084       .  S
C342        C343   1.416       .  A
C343        C344   1.394       .  A
C343        N350   1.436       .  S
C344        C345   1.397       .  A
C344        H349   1.085       .  S
C345        C346   1.410       .  A
C346        N347   1.438   1_455  S
N347        H351   1.045       .  S
N347       H1816   1.044       .  S
N350        H353   1.042       .  S
N350        H354   1.046       .  S
H352       N1811   1.044       .  S
C355        C356   1.400       .  A
C355        C360   1.405       .  A
C355        H362   1.084       .  S
C356       C1635   1.494   1_455  S
C356        C357   1.422       .  A
C357        C358   1.413       .  A
C357        N364   1.438       .  S
C358        C359   1.399       .  A
C358        H363   1.083       .  S
C359        C360   1.414       .  A
C360        N361   1.437       .  S
N361        H365   1.046       .  S
N361        H366   1.044       .  S
N364        H368   1.046       .  S
N364       H1831   1.045   1_455  S
H367       N1828   1.045       .  S
C369        C370   1.403       .  A
C369        C374   1.399       .  A
C369        H376   1.084       .  S
C370        C371   1.419   1_554  A
C371        C372   1.406       .  A
C371        N378   1.440       .  S
C372        C373   1.404       .  A
C372        H377   1.084       .  S
C373        C374   1.411   1_556  A
C374        N375   1.433       .  S
N375        H379   1.045   1_554  S
N375        H380   1.045       .  S
N378        H381   1.043   1_556  S
N378        H382   1.045       .  S
C383        C384   1.409       .  A
C383        C388   1.391       .  A
C383        H390   1.084       .  S
C384        C385   1.412       .  A
C385        C386   1.406       .  A
C385        N392   1.432       .  S
C386        C387   1.404       .  A
C386        H391   1.084       .  S
C387        C388   1.403       .  A
C388        N389   1.434   1_554  S
N389        H393   1.046       .  S
N389        H394   1.046       .  S
N392        H395   1.046       .  S
N392        H396   1.046       .  S
C397        C398   1.404       .  A
C397        C402   1.404       .  A
C397        H404   1.084       .  S
C398        C399   1.409       .  A
C399        C400   1.394       .  A
C399        N406   1.440       .  S
C400        C401   1.409       .  A
C400        H405   1.085       .  S
C401        C402   1.418       .  A
C402        N403   1.438       .  S
N403        H407   1.045       .  S
N403        H408   1.041       .  S
N406        H409   1.043       .  S
N406        H410   1.046       .  S
C411        C412   1.409       .  A
C411        C416   1.396       .  A
C411        H418   1.084       .  S
C412        C413   1.414       .  A
C413        C414   1.399       .  A
C413        N420   1.437       .  S
C414        C415   1.406       .  A
C414        H419   1.085       .  S
C415        C416   1.411       .  A
C416        N417   1.439       .  S
N417        H421   1.046       .  S
N417        H422   1.042       .  S
N420        H423   1.043       .  S
N420        H424   1.045       .  S
C425        C426   1.420       .  A
C425        C430   1.413       .  A
C425        H432   1.081       .  S
C426        C427   1.408       .  A
C427        C428   1.397       .  A
C427        N434   1.433       .  S
C428        C429   1.415       .  A
C428        H433   1.083       .  S
C429        C430   1.406       .  A
C430        N431   1.435       .  S
N431        H435   1.045       .  S
N431        H436   1.046       .  S
N434        H437   1.046       .  S
N434        H438   1.046       .  S
C439        C440   1.405       .  A
C439        C444   1.418       .  A
C439        H446   1.083       .  S
C440        C441   1.420       .  A
C441        C442   1.381       .  A
C441        N448   1.423       .  S
C442        C443   1.390       .  A
C442        H447   1.085       .  S
C443        C815   1.490       .  S
C443        C444   1.427       .  A
C444       N1177   1.438       .  S
N445       C1176   1.438   1_545  S
N445        H449   1.046       .  S
N445        H450   1.043       .  S
N448        H451   1.042       .  S
N448        H452   1.042       .  S
C453        C454   1.420       .  A
C453        C458   1.399       .  A
C453        H460   1.083       .  S
C454        C455   1.425       .  A
C455        C456   1.429       .  A
C455        N462   1.435       .  S
C456        C457   1.417       .  A
C456        H461   1.083       .  S
C457        C458   1.410       .  A
C458        N459   1.442       .  S
N459        H463   1.046       .  S
N459        H464   1.041       .  S
N462        H465   1.041       .  S
N462        H466   1.045       .  S
C467        C468   1.387       .  A
C467        C472   1.394       .  A
C467        H474   1.084       .  S
C468        C469   1.409       .  A
C469        C470   1.402       .  A
C469        N476   1.437       .  S
C470        C471   1.403       .  A
C470        H475   1.083       .  S
C471        C472   1.430       .  A
C472        N473   1.440       .  S
N473        H477   1.046       .  S
N473        H478   1.046       .  S
N476        H479   1.046       .  S
N476        H480   1.046       .  S
C481        C482   1.405       .  A
C481        C486   1.398       .  A
C481        H488   1.085       .  S
C482        C483   1.417       .  A
C483        C484   1.405       .  A
C483        N490   1.438       .  S
C484        C485   1.407       .  A
C484        H489   1.084       .  S
C485        C486   1.416       .  A
C486        N487   1.438       .  S
N487        H491   1.045       .  S
N487        H492   1.042       .  S
N490        H493   1.042       .  S
N490        H494   1.046       .  S
C495        C496   1.395       .  A
C495        C500   1.390       .  A
C495        H502   1.085       .  S
C496        C497   1.406       .  A
C497        C498   1.408       .  A
C497        N504   1.437       .  S
C498        C499   1.408       .  A
C498       H1967   1.084       .  S
C499        C500   1.423       .  A
C500        N501   1.433   1_455  S
N501        H505   1.045       .  S
N501        H506   1.036       .  S
H503       C1962   1.084       .  S
N504        H507   1.045       .  S
N504       H1972   1.046       .  S
H508       N1968   1.046       .  S
C509        C510   1.416       .  A
C509        C514   1.394       .  A
C509        H516   1.073       .  S
C510        C511   1.429       .  A
C511        C512   1.421       .  A
C511        N518   1.435       .  S
C512        C513   1.411       .  A
C512        H517   1.080       .  S
C513        C514   1.403       .  A
C514        N515   1.427       .  S
N515        H519   1.045       .  S
N515        H520   1.046       .  S
N518        H521   1.046       .  S
N518        H522   1.046       .  S
C523        C524   1.399       .  A
C523        C528   1.406       .  A
C523        H530   1.084       .  S
C524       C1257   1.413       .  A
C525       C1256   1.413       .  A
C525       C1258   1.406       .  A
C525        N532   1.439       .  S
C526        C527   1.411       .  A
C526       C1257   1.406       .  A
C526       H1263   1.080       .  S
C527        C528   1.433       .  A
C528        N529   1.433       .  S
N529        H533   1.045       .  S
N529        H534   1.044       .  S
H531       C1258   1.080       .  S
N532        H535   1.041       .  S
N532        H536   1.045       .  S
C537        C538   1.408       .  A
C537        C542   1.413   1_565  A
C537        H544   1.084       .  S
C538       C1271   1.416       .  A
C539        C540   1.398       .  A
C539       C1270   1.416       .  A
C539        N546   1.440       .  S
C540       C1273   1.403       .  A
C540        H545   1.079       .  S
C541        C542   1.419   1_565  A
C541       C1272   1.403       .  A
C542        N543   1.437       .  S
N543        H547   1.046       .  S
N543        H548   1.043       .  S
N546        H549   1.043       .  S
N546        H550   1.046       .  S
C551        C552   1.407       .  A
C551        C556   1.396       .  A
C551        H558   1.083       .  S
C552       C2017   1.410       .  A
C553        C554   1.391   1_655  A
C553       C2016   1.410       .  A
C553        N560   1.433   1_655  S
C554       C2019   1.398   1_455  A
C554        H559   1.084       .  S
C555        C556   1.406       .  A
C555       C2018   1.398       .  A
C556        N557   1.439       .  S
N557        H561   1.045       .  S
N557        H562   1.042       .  S
N560        H563   1.046       .  S
N560        H564   1.046   1_455  S
C565        C566   1.407       .  A
C565        C570   1.403       .  A
C565        H572   1.084       .  S
C566        C567   1.415       .  A
C567        C568   1.409       .  A
C567        N574   1.438       .  S
C568        C569   1.405       .  A
C568        H573   1.084       .  S
C569        C570   1.417       .  A
C570        N571   1.438       .  S
N571        H575   1.045       .  S
N571        H576   1.043       .  S
N574        H577   1.046       .  S
N574        H578   1.046       .  S
C579        C580   1.412       .  A
C579        C584   1.403       .  A
C579        H586   1.083       .  S
C580        C581   1.415       .  A
C581        C582   1.402       .  A
C581        N588   1.438       .  S
C582        C583   1.406       .  A
C582        H587   1.083       .  S
C583        C584   1.407       .  A
C584        N585   1.438   1_556  S
N585        H589   1.046       .  S
N585        H590   1.046       .  S
N588        H591   1.046       .  S
N588        H592   1.046       .  S
C593        C594   1.402       .  A
C593        C598   1.389       .  A
C593        H600   1.084       .  S
C594        C595   1.419       .  A
C595        C596   1.400       .  A
C595        N602   1.438       .  S
C596        C597   1.395       .  A
C596       H2065   1.084       .  S
C597       C1525   1.455       .  S
C597        C598   1.414       .  A
C598        N599   1.442       .  S
N599        H603   1.045       .  S
N599        H604   1.042       .  S
H601       C2060   1.084   1_455  S
N602        H605   1.046       .  S
N602        H606   1.046       .  S
C607        C608   1.403       .  A
C607        C612   1.408       .  A
C607        H614   1.084       .  S
C608        C609   1.406       .  A
C609        C610   1.407       .  A
C609        N616   1.438       .  S
C610        C611   1.412       .  A
C610        H615   1.083       .  S
C611        C612   1.415       .  A
C612        N613   1.436       .  S
N613        H617   1.046       .  S
N613        H618   1.045       .  S
N616        H619   1.046       .  S
N616        H620   1.046       .  S
C621        C622   1.400       .  A
C621        C626   1.389       .  A
C621        H628   1.085       .  S
C622        C623   1.409       .  A
C623        C624   1.400       .  A
C623        N630   1.430       .  S
C624        C625   1.403       .  A
C624        H629   1.084       .  S
C625        C626   1.410       .  A
C626        N627   1.434       .  S
N627        H631   1.045       .  S
N627        H632   1.044       .  S
N630        H633   1.043       .  S
N630        H634   1.046       .  S
C635        C636   1.407       .  A
C635        C640   1.423       .  A
C635        H642   1.084       .  S
C636        C637   1.411       .  A
C637        C638   1.405       .  A
C637        N644   1.429       .  S
C638        C639   1.404       .  A
C638        H643   1.083       .  S
C639        C640   1.423       .  A
C640        N641   1.437   1_556  S
N641        H645   1.046   1_554  S
N641        H646   1.045       .  S
N644        H647   1.046       .  S
N644        H648   1.046       .  S
C649        C650   1.398       .  A
C649        C654   1.401       .  A
C649        H656   1.084       .  S
C650        C651   1.422       .  A
C651        C652   1.414       .  A
C651        N658   1.438       .  S
C652        C653   1.404       .  A
C652        H657   1.084       .  S
C653        C654   1.422       .  A
C654        N655   1.440       .  S
N655        H659   1.045       .  S
N655        H660   1.042       .  S
N658        H661   1.043       .  S
N658        H662   1.046       .  S
C663        C664   1.402       .  A
C663        C668   1.395       .  A
C663        H670   1.084       .  S
C664        C665   1.419       .  A
C665        C666   1.408       .  A
C665        N672   1.437       .  S
C666        C667   1.404       .  A
C666        H671   1.084       .  S
C667        C668   1.408       .  A
C668        N669   1.431       .  S
N669        H673   1.046       .  S
N669        H674   1.046       .  S
N672        H675   1.043       .  S
N672        H676   1.045       .  S
C677        C678   1.413       .  A
C677        C682   1.402       .  A
C677        H684   1.084       .  S
C678        C679   1.415       .  A
C679        C680   1.408       .  A
C679        N686   1.438       .  S
C680        C681   1.408       .  A
C680        H685   1.084       .  S
C681        C943   1.486   1_545  S
C681        C682   1.403       .  A
C682        N683   1.432   1_545  S
N683        H687   1.046       .  S
N683       H1420   1.046       .  S
N686        H689   1.045       .  S
N686        H690   1.046       .  S
H688       N1415   1.046       .  S
C691        C692   1.408       .  A
C691        C696   1.398       .  A
C691        H698   1.083       .  S
C692        C693   1.418       .  A
C693        C694   1.397       .  A
C693        N700   1.439       .  S
C694        C695   1.396       .  A
C694        H699   1.085       .  S
C695        C696   1.411       .  A
C696        N697   1.439       .  S
N697        H701   1.046       .  S
N697       H1434   1.044   1_545  S
N700        H703   1.046       .  S
N700        H704   1.046       .  S
H702       N1429   1.044       .  S
C705        C706   1.406       .  A
C705        C710   1.409       .  A
C705        H712   1.084       .  S
C706        C707   1.409       .  A
C707        C708   1.411       .  A
C707        N714   1.438       .  S
C708        C709   1.408       .  A
C708        H713   1.084       .  S
C709        C710   1.409       .  A
C710        N711   1.438       .  S
N711        H715   1.046       .  S
N711        H716   1.045       .  S
N714        H717   1.045       .  S
N714        H718   1.046       .  S
C719        C720   1.397       .  A
C719        C724   1.395       .  A
C719        H726   1.083       .  S
C720        C721   1.418       .  A
C721        C722   1.409       .  A
C721        N728   1.432       .  S
C722        C723   1.400       .  A
C722        H727   1.084       .  S
C723        C724   1.411       .  A
C724        N725   1.435       .  S
N725        H729   1.044       .  S
N725        H730   1.046       .  S
N728        H731   1.046       .  S
N728        H732   1.046       .  S
O733       Zr769   2.405       .  S
O733        C744   1.287       .  A
O734       Zr768   2.408       .  S
O734        C745   1.287       .  A
O735       Zr741   2.399       .  S
O735        C746   1.286       .  A
O736       Zr741   2.396       .  S
O736        C747   1.283       .  A
O737       Zr771   2.504       .  S
O737        C747   1.304       .  A
O738       Zr770   2.481       .  S
O738        C746   1.299       .  A
O739       Zr741   2.439       .  S
O739        C745   1.293       .  A
O740       Zr741   2.461       .  S
O740        C744   1.295       .  A
Zr741       O742   2.341       .  S
Zr741       O743   2.332       .  S
Zr741       O751   2.327       .  S
Zr741       O749   2.337       .  S
O742       Zr768   2.354       .  S
O742       Zr771   2.337       .  S
O743       Zr769   2.351       .  S
O743       Zr770   2.340       .  S
C744       C1455   1.475       .  S
C745       C1424   1.480       .  S
C746       C1410   1.492       .  S
C747       C1438   1.476       .  S
H748        O749   0.965       .  S
O749       Zr768   2.325       .  S
O749       Zr770   2.331       .  S
H750        O751   0.964       .  S
O751       Zr769   2.323       .  S
O751       Zr771   2.349       .  S
O752       Zr768   2.415       .  S
O752        C775   1.289       .  A
O753       Zr769   2.413       .  S
O753        C776   1.288       .  A
O754       Zr770   2.389       .  S
O754        C777   1.283       .  A
O755       Zr771   2.442       .  S
O755        C778   1.295       .  A
O756       Zr771   2.378       .  S
O756        C779   1.282       .  A
O757       Zr770   2.399       .  S
O757        C780   1.286       .  A
O758       Zr772   2.391       .  S
O758        C781   1.281       .  A
O759       Zr772   2.413       .  S
O759        C782   1.287       .  A
O760       Zr770   2.465       .  S
O760        C781   1.295       .  A
O761       Zr771   2.496       .  S
O761        C782   1.302       .  A
O762       Zr768   2.536       .  S
O762        C777   1.310       .  A
O763       Zr769   2.440       .  S
O763        C780   1.295       .  A
O764       Zr769   2.493       .  S
O764        C779   1.302       .  A
O765       Zr768   2.458       .  S
O765        C778   1.297       .  A
O766       Zr772   2.451       .  S
O766        C775   1.295       .  A
O767       Zr772   2.476       .  S
O767        C776   1.299       .  A
Zr768       O774   2.318       .  S
Zr768       O786   2.372       .  S
Zr769       O773   2.324       .  S
Zr769       O784   2.345       .  S
Zr770       O774   2.326       .  S
Zr770       O784   2.347       .  S
Zr771       O773   2.338       .  S
Zr771       O786   2.355       .  S
Zr772       O773   2.321       .  S
Zr772       O774   2.341       .  S
Zr772       O786   2.350       .  S
Zr772       O784   2.326       .  S
C775       C1312   1.491       .  S
C776       C1343   1.495       .  S
C777       C1368   1.495       .  S
C778       C1298   1.492       .  S
C779       C1399   1.469       .  S
C780       C1326   1.476       .  S
C781       C1354   1.457       .  S
C782       C1385   1.486       .  S
H783        O784   0.965       .  S
H785        O786   0.966       .  S
C787       C1217   1.498       .  S
C787        C788   1.406       .  A
C788       C1287   1.472       .  S
C788       C1521   1.414   1_565  A
C789       C1273   1.508       .  S
C789       C1520   1.414       .  A
C789        C790   1.427       .  A
C790       C1245   1.519       .  S
C790        C791   1.443       .  A
C791       C1231   1.495       .  S
C791       C2256   1.431   1_455  A
C792       C1256   1.500       .  S
C792       C2255   1.431       .  A
C793       C2793   1.455   1_455  S
C793        C794   1.401       .  A
C793        C798   1.391       .  A
C794        C795   1.401       .  A
C794        H799   1.084   1_455  S
C795       C1228   1.470       .  S
C795        C796   1.404       .  A
C796        C797   1.397       .  A
C796        H800   1.084       .  S
C797       C1200   1.459       .  S
C797        C798   1.387       .  A
C798        H801   1.085       .  S
C802       C1189   1.509       .  S
C802        C807   1.422       .  A
C803        C804   1.415       .  A
C803        H808   1.083       .  S
C804       C1441   1.487       .  S
C804        C805   1.393       .  A
C805        C806   1.395       .  A
C805        H809   1.085       .  S
C806       C1270   1.489       .  S
C807        H810   1.083       .  S
C811       C1452   1.486       .  S
C811        C812   1.410       .  A
C811        C816   1.398       .  A
C812        C813   1.406       .  A
C812        H817   1.074       .  S
C813       C1259   1.520       .  S
C813        C814   1.416       .  A
C814        C815   1.415       .  A
C815        C816   1.397       .  A
C816        H819   1.083       .  S
C820       C1158   1.507       .  S
C820       C2285   1.422       .  A
C820        C825   1.403       .  A
C821       C2284   1.422       .  A
C821        C822   1.411       .  A
C821        H826   1.081       .  S
C822       C1340   1.479       .  S
C822        C823   1.392       .  A
C823        C824   1.395       .  A
C823        H827   1.085       .  S
C824       C1284   1.475       .  S
C824       C2289   1.398       .  A
C825       C2288   1.398   1_455  A
C825        H828   1.078       .  S
C829       C1396   1.485       .  S
C829        C830   1.417       .  A
C829        C834   1.397       .  A
C830        C831   1.426       .  A
C830        H835   1.073       .  S
C831       C1242   1.538       .  S
C831        C832   1.418       .  A
C832        C833   1.394       .  A
C832        H836   1.075       .  S
C833       C1144   1.482       .  S
C833        C834   1.388       .  A
C834        H837   1.084       .  S
C838       C1382   1.490       .  S
C838        C839   1.416       .  A
C838        C843   1.407       .  A
C839        C840   1.413       .  A
C839        H844   1.083       .  S
C840       C1214   1.486       .  S
C840        C841   1.396       .  A
C841        C842   1.390       .  A
C841        H845   1.085       .  S
C842       C1130   1.470       .  S
C842        C843   1.402       .  A
C843        H846   1.084       .  S
O847       Zr883   2.364       .  S
O847        C858   1.276       .  A
O848       Zr882   2.443       .  S
O848        C859   1.294       .  A
O849       Zr855   2.374       .  S
O849        C860   1.282       .  A
O850       Zr855   2.393       .  S
O850        C861   1.283       .  A
O851       Zr885   2.497       .  S
O851        C861   1.302       .  A
O852       Zr884   2.514       .  S
O852        C860   1.306       .  A
O853       Zr855   2.417       .  S
O853        C859   1.289       .  A
O854       Zr855   2.475       .  S
O854        C858   1.299       .  A
Zr855       O856   2.337       .  S
Zr855       O857   2.322       .  S
Zr855       O865   2.321       .  S
Zr855       O863   2.348       .  S
O856       Zr882   2.321       .  S
O856       Zr885   2.325       .  S
O857       Zr883   2.309       .  S
O857       Zr884   2.349       .  S
C858       C1203   1.483       .  S
C859       C1074   1.481       .  S
C860       C1161   1.498       .  S
C861       C1091   1.479       .  S
H862        O863   0.964       .  S
O863       Zr882   2.351       .  S
O863       Zr884   2.338       .  S
H864        O865   0.965       .  S
O865       Zr883   2.360       .  S
O865       Zr885   2.352       .  S
O866       Zr882   2.426       .  S
O866        C889   1.290       .  A
O867       Zr883   2.376       .  S
O867        C890   1.283       .  A
O868       Zr884   2.450       .  S
O868        C891   1.295       .  A
O869       Zr885   2.397       .  S
O869        C892   1.285       .  A
O870       Zr885   2.394       .  S
O870        C893   1.286       .  A
O871       Zr884   2.374       .  S
O871        C894   1.273       .  A
O872       Zr886   2.417       .  S
O872        C895   1.288       .  A
O873       Zr886   2.395       .  S
O873        C896   1.285       .  A
O874       Zr884   2.501       .  S
O874        C895   1.303       .  A
O875       Zr885   2.490       .  S
O875        C896   1.300       .  A
O876       Zr882   2.405       .  S
O876        C891   1.288       .  A
O877       Zr883   2.574       .  S
O877        C894   1.313       .  A
O878       Zr883   2.478       .  S
O878        C893   1.301       .  A
O879       Zr882   2.498       .  S
O879        C892   1.302       .  A
O880       Zr886   2.463       .  S
O880        C889   1.297       .  A
O881       Zr886   2.490       .  S
O881        C890   1.302       .  A
Zr882       O888   2.362       .  S
Zr882       O900   2.322       .  S
Zr883       O887   2.356       .  S
Zr883       O898   2.317       .  S
Zr884       O888   2.343       .  S
Zr884       O898   2.342       .  S
Zr885       O887   2.344       .  S
Zr885       O900   2.333       .  S
Zr886       O887   2.324       .  S
Zr886       O888   2.340       .  S
Zr886       O900   2.343       .  S
Zr886       O898   2.326       .  S
C889       C1102   1.476       .  S
C890       C1133   1.479       .  S
C891       C1116   1.481       .  S
C892       C1049   1.487       .  S
C893       C1147   1.466       .  S
C894       C1186   1.529       .  S
C895       C1172   1.493       .  S
C896       C1060   1.474       .  S
H897        O898   0.961       .  S
H899        O900   0.965       .  S
C901       C1371   1.513   1_554  S
C901        C902   1.423       .  A
C901        C906   1.418       .  A
C902        C903   1.414       .  A
C902        H907   1.083       .  S
C903       C2552   1.494       .  S
C903        C904   1.391       .  A
C904        C905   1.395       .  A
C904       H2372   1.085       .  S
C905       C1035   1.483       .  S
C905        C906   1.409       .  A
C906        H909   1.082   1_554  S
H908       C2368   1.085   1_455  S
C910       C1032   1.487       .  S
C910       C2375   1.415       .  A
C911        C976   1.500       .  S
C911       C2374   1.415   1_455  A
C912        C990   1.477       .  S
C912        C913   1.423   1_445  A
C913       C1007   1.498   1_655  S
C913       C2378   1.411       .  A
C914       C1018   1.497   1_556  S
C914       C2377   1.411       .  A
C914        C915   1.403       .  A
C915        C965   1.471       .  S
C916       C1119   1.471   1_556  S
C916        C917   1.396       .  A
C916        C921   1.399       .  A
C917        H922   1.085       .  S
C918       C1427   1.460       .  S
C918        C919   1.398       .  A
C919        H923   1.084       .  S
C920        C993   1.470   1_565  S
C920        C921   1.405       .  A
C921        H924   1.084   1_556  S
C925       C1077   1.462       .  S
C925        C926   1.400       .  A
C925       C2394   1.386   1_454  A
C926       C2391   1.413   1_454  A
C926        H931   1.078       .  S
C927       C1004   1.510       .  S
C927       C2390   1.413   1_556  A
C927        C928   1.418       .  A
C928        C929   1.403       .  A
C928        H932   1.080       .  S
C929       C1357   1.465       .  S
C929        C930   1.387       .  A
C930       C2389   1.386   1_556  A
C930        H933   1.086       .  S
C934       C1046   1.502       .  S
C934        C935   1.409       .  A
C934        C939   1.414       .  A
C935        C936   1.404       .  A
C935        H940   1.083       .  S
C936       C1301   1.488       .  S
C936        C937   1.403       .  A
C937        C938   1.407       .  A
C937        H941   1.084       .  S
C938        C979   1.498       .  S
C938        C939   1.413       .  A
C939        H942   1.083       .  S
C943        C944   1.414       .  A
C943        C948   1.397       .  A
C944        C945   1.412       .  A
C944        H949   1.083       .  S
C945       C1105   1.479       .  S
C945        C946   1.398       .  A
C946        C947   1.395       .  A
C946        H950   1.085       .  S
C947        C962   1.471       .  S
C947        C948   1.397       .  A
C952       C1315   1.485   1_554  S
C952        C953   1.408       .  A
C952        C957   1.402       .  A
C953        C954   1.403       .  A
C953        H958   1.083       .  S
C954       C1063   1.484       .  S
C954        C955   1.410       .  A
C955        C956   1.402       .  A
C955        H959   1.084       .  S
C956       C1021   1.477       .  S
C956        C957   1.397       .  A
C957        H960   1.085   1_554  S
C961        C962   1.407       .  A
C961        C966   1.401   1_556  A
C961        H968   1.083   1_556  S
C962        C963   1.408       .  A
C963        C964   1.394       .  A
C963        N970   1.438       .  S
C964        C965   1.400       .  A
C964        H969   1.084       .  S
C965        C966   1.405   1_556  A
C966        N967   1.437       .  S
N967        H971   1.045       .  S
N967        H972   1.043       .  S
N970        H973   1.046       .  S
N970        H974   1.046       .  S
C975        C976   1.403       .  A
C975        C980   1.403       .  A
C975        H982   1.084       .  S
C976        C977   1.419   1_556  A
C977        C978   1.407   1_554  A
C977        N984   1.437       .  S
C978        C979   1.406       .  A
C978        H983   1.084   1_556  S
C979        C980   1.421       .  A
C980        N981   1.437       .  S
N981        H985   1.045       .  S
N981        H986   1.043       .  S
N984        H987   1.041       .  S
N984        H988   1.045       .  S
C989        C990   1.402   1_565  A
C989        C994   1.399       .  A
C989        H996   1.084       .  S
C990        C991   1.414   1_556  A
C991        C992   1.394       .  A
C991        N998   1.437       .  S
C992        C993   1.401   1_554  A
C992        H997   1.085       .  S
C993        C994   1.416   1_545  A
C994        N995   1.439       .  S
N995        H999   1.046       .  S
N995       H1000   1.042       .  S
N998       H1001   1.041       .  S
N998       H1002   1.045       .  S
C1003      C1004   1.411       .  A
C1003      C1008   1.402       .  A
C1003      H1010   1.079       .  S
C1004      C2469   1.429   1_556  A
C1005      C2468   1.429   1_554  A
C1005      C1006   1.401       .  A
C1005      N1012   1.436       .  S
C1006      C1007   1.400   1_554  A
C1006      H1011   1.081       .  S
C1007      C2472   1.408   1_455  A
C1008      C2471   1.408       .  A
C1008      N1009   1.437       .  S
N1009      H1013   1.046       .  S
N1009      H1014   1.045       .  S
N1012      H1015   1.044       .  S
N1012      H1016   1.045       .  S
C1017      C1018   1.403   1_556  A
C1017      C1022   1.400       .  A
C1017      H1024   1.081       .  S
C1018      C1019   1.414       .  A
C1019      C1020   1.410       .  A
C1019      N1026   1.438       .  S
C1020      C1021   1.401       .  A
C1020      H1025   1.083       .  S
C1021      C1022   1.409   1_554  A
C1022      N1023   1.438       .  S
N1023      H1027   1.046       .  S
N1023      H1028   1.046       .  S
N1026      H1029   1.044       .  S
N1026      H1030   1.046       .  S
C1031      C2496   1.399   1_554  A
C1031      C2500   1.397       .  A
C1031      H1038   1.083       .  S
C1032      C2495   1.399   1_556  A
C1032      C1033   1.413       .  A
C1033      C1034   1.412       .  A
C1033      N1040   1.436       .  S
C1034      C1035   1.405   1_556  A
C1034      H1039   1.083       .  S
C1035      C1036   1.412       .  A
C1036      C2495   1.397       .  A
C1036      N2501   1.439       .  S
N1037      C2500   1.439       .  S
N1037      H1041   1.046       .  S
N1037      H1042   1.045       .  S
N1040      H1043   1.042       .  S
N1040      H1044   1.045       .  S
C1045      C1046   1.410       .  A
C1045      C1050   1.412       .  A
C1045      H1052   1.084       .  S
C1046      C1047   1.416       .  A
C1047      C1048   1.405   1_556  A
C1047      N1054   1.439       .  S
C1048      C1049   1.405       .  A
C1048      H1053   1.085       .  S
C1049      C1050   1.417   1_554  A
C1050      N1051   1.436       .  S
N1051      H1055   1.046       .  S
N1051      H1056   1.043       .  S
N1054      H1057   1.046   1_556  S
N1054      H1058   1.046   1_556  S
C1059      C1060   1.405       .  A
C1059      C1064   1.399       .  A
C1059      H1066   1.085       .  S
C1060      C1061   1.408       .  A
C1061      C1062   1.415       .  A
C1061      N1068   1.437       .  S
C1062      C1063   1.409       .  A
C1062      H1067   1.083       .  S
C1063      C1064   1.408       .  A
C1064      N1065   1.439       .  S
N1065      H1069   1.045       .  S
N1065      H1070   1.046   1_554  S
N1068      H1071   1.045       .  S
N1068      H1072   1.046       .  S
C1073      C1074   1.411       .  A
C1073      C1078   1.400       .  A
C1073      H1080   1.084       .  S
C1074      C1075   1.416       .  A
C1075      C1076   1.394       .  A
C1075      N1082   1.436       .  S
C1076      C1077   1.397       .  A
C1076      H1081   1.085       .  S
C1077      C1078   1.410       .  A
C1078      N1079   1.438   1_455  S
N1079      H1083   1.045       .  S
N1079      H2548   1.044       .  S
N1082      H1085   1.042       .  S
N1082      H1086   1.046       .  S
H1084      N2543   1.044       .  S
C1087      C1088   1.400       .  A
C1087      C1092   1.405       .  A
C1087      H1094   1.084       .  S
C1088      C2367   1.494   1_455  S
C1088      C1089   1.422       .  A
C1089      C1090   1.413       .  A
C1089      N1096   1.438       .  S
C1090      C1091   1.399       .  A
C1090      H1095   1.083       .  S
C1091      C1092   1.414       .  A
C1092      N1093   1.437       .  S
N1093      H1097   1.046       .  S
N1093      H1098   1.044       .  S
N1096      H2563   1.045   1_455  S
N1096      H1100   1.046       .  S
H1099      N2560   1.045       .  S
C1101      C1102   1.403       .  A
C1101      C1106   1.399       .  A
C1101      H1108   1.084       .  S
C1102      C1103   1.419   1_554  A
C1103      C1104   1.406       .  A
C1103      N1110   1.440       .  S
C1104      C1105   1.404       .  A
C1104      H1109   1.084       .  S
C1105      C1106   1.411   1_556  A
C1106      N1107   1.433       .  S
N1107      H1111   1.045   1_554  S
N1107      H1112   1.045       .  S
N1110      H1113   1.043   1_556  S
N1110      H1114   1.045       .  S
C1115      C1116   1.409       .  A
C1115      C1120   1.391       .  A
C1115      H1122   1.084       .  S
C1116      C1117   1.412       .  A
C1117      C1118   1.406       .  A
C1117      N1124   1.432       .  S
C1118      C1119   1.404       .  A
C1118      H1123   1.084       .  S
C1119      C1120   1.403       .  A
C1120      N1121   1.434   1_554  S
N1121      H1125   1.046       .  S
N1121      H1126   1.046       .  S
N1124      H1127   1.046       .  S
N1124      H1128   1.046       .  S
C1129      C1130   1.404       .  A
C1129      C1134   1.404       .  A
C1129      H1136   1.084       .  S
C1130      C1131   1.409       .  A
C1131      C1132   1.394       .  A
C1131      N1138   1.440       .  S
C1132      C1133   1.409       .  A
C1132      H1137   1.085       .  S
C1133      C1134   1.418       .  A
C1134      N1135   1.438       .  S
N1135      H1139   1.045       .  S
N1135      H1140   1.041       .  S
N1138      H1141   1.043       .  S
N1138      H1142   1.046       .  S
C1143      C1144   1.409       .  A
C1143      C1148   1.396       .  A
C1143      H1150   1.084       .  S
C1144      C1145   1.414       .  A
C1145      C1146   1.399       .  A
C1145      N1152   1.437       .  S
C1146      C1147   1.406       .  A
C1146      H1151   1.085       .  S
C1147      C1148   1.411       .  A
C1148      N1149   1.439       .  S
N1149      H1153   1.046       .  S
N1149      H1154   1.042       .  S
N1152      H1155   1.043       .  S
N1152      H1156   1.045       .  S
C1157      C1158   1.420       .  A
C1157      C1162   1.413       .  A
C1157      H1164   1.081       .  S
C1158      C1159   1.408       .  A
C1159      C1160   1.397       .  A
C1159      N1166   1.433       .  S
C1160      C1161   1.415       .  A
C1160      H1165   1.083       .  S
C1161      C1162   1.406       .  A
C1162      N1163   1.435       .  S
N1163      H1167   1.045       .  S
N1163      H1168   1.046       .  S
N1166      H1169   1.046       .  S
N1166      H1170   1.046       .  S
C1171      C1172   1.405       .  A
C1171      C1176   1.418       .  A
C1171      H1178   1.083       .  S
C1172      C1173   1.420       .  A
C1173      C1174   1.381       .  A
C1173      N1180   1.423       .  S
C1174      C1175   1.390       .  A
C1174      H1179   1.085       .  S
C1175      C1176   1.427       .  A
N1177      H1181   1.046       .  S
N1177      H1182   1.043       .  S
N1180      H1183   1.042       .  S
N1180      H1184   1.042       .  S
C1185      C1186   1.420       .  A
C1185      C1190   1.399       .  A
C1185      H1192   1.083       .  S
C1186      C1187   1.425       .  A
C1187      C1188   1.429       .  A
C1187      N1194   1.435       .  S
C1188      C1189   1.417       .  A
C1188      H1193   1.083       .  S
C1189      C1190   1.410       .  A
C1190      N1191   1.442       .  S
N1191      H1195   1.046       .  S
N1191      H1196   1.041       .  S
N1194      H1197   1.041       .  S
N1194      H1198   1.045       .  S
C1199      C1200   1.387       .  A
C1199      C1204   1.394       .  A
C1199      H1206   1.084       .  S
C1200      C1201   1.409       .  A
C1201      C1202   1.402       .  A
C1201      N1208   1.437       .  S
C1202      C1203   1.403       .  A
C1202      H1207   1.083       .  S
C1203      C1204   1.430       .  A
C1204      N1205   1.440       .  S
N1205      H1209   1.046       .  S
N1205      H1210   1.046       .  S
N1208      H1211   1.046       .  S
N1208      H1212   1.046       .  S
C1213      C1214   1.405       .  A
C1213      C1218   1.398       .  A
C1213      H1220   1.085       .  S
C1214      C1215   1.417       .  A
C1215      C1216   1.405       .  A
C1215      N1222   1.438       .  S
C1216      C1217   1.407       .  A
C1216      H1221   1.084       .  S
C1217      C1218   1.416       .  A
C1218      N1219   1.438       .  S
N1219      H1223   1.045       .  S
N1219      H1224   1.042       .  S
N1222      H1225   1.042       .  S
N1222      H1226   1.046       .  S
C1227      C1228   1.395       .  A
C1227      C1232   1.390       .  A
C1227      H1234   1.085       .  S
C1228      C1229   1.406       .  A
C1229      C1230   1.408       .  A
C1229      N1236   1.437       .  S
C1230      C1231   1.408       .  A
C1230      H2699   1.084       .  S
C1231      C1232   1.423       .  A
C1232      N1233   1.433   1_455  S
N1233      H1237   1.045       .  S
N1233      H1238   1.036       .  S
H1235      C2694   1.084       .  S
N1236      H1239   1.045       .  S
N1236      H2704   1.046       .  S
H1240      N2700   1.046       .  S
C1241      C1242   1.416       .  A
C1241      C1246   1.394       .  A
C1241      H1248   1.073       .  S
C1242      C1243   1.429       .  A
C1243      C1244   1.421       .  A
C1243      N1250   1.435       .  S
C1244      C1245   1.411       .  A
C1244      H1249   1.080       .  S
C1245      C1246   1.403       .  A
C1246      N1247   1.427       .  S
N1247      H1251   1.045       .  S
N1247      H1252   1.046       .  S
N1250      H1253   1.046       .  S
N1250      H1254   1.046       .  S
C1255      C1256   1.399       .  A
C1255      C1260   1.406       .  A
C1255      H1262   1.084       .  S
C1257      N1264   1.439   1_545  S
C1258      C1259   1.411       .  A
C1259      C1260   1.433       .  A
C1260      N1261   1.433       .  S
N1261      H1265   1.045       .  S
N1261      H1266   1.044       .  S
N1264      H1267   1.041   1_565  S
N1264      H1268   1.045       .  S
C1269      C1270   1.408       .  A
C1269      C1274   1.413       .  A
C1269      H1276   1.084       .  S
C1271      C1272   1.398       .  A
C1271      N1278   1.440       .  S
C1272      H1277   1.079       .  S
C1273      C1274   1.419       .  A
C1274      N1275   1.437       .  S
N1275      H1279   1.046       .  S
N1275      H1280   1.043       .  S
N1278      H1281   1.043       .  S
N1278      H1282   1.046       .  S
C1283      C1284   1.407       .  A
C1283      C1288   1.396       .  A
C1283      H1290   1.083       .  S
C1284      C2749   1.410       .  A
C1285      C2748   1.410       .  A
C1285      C1286   1.391   1_655  A
C1285      N1292   1.433   1_655  S
C1286      C2751   1.398   1_455  A
C1286      H1291   1.084       .  S
C1287      C2750   1.398       .  A
C1287      C1288   1.406       .  A
C1288      N1289   1.439       .  S
N1289      H1293   1.045       .  S
N1289      H1294   1.042       .  S
N1292      H1295   1.046       .  S
N1292      H1296   1.046   1_455  S
C1297      C1298   1.407       .  A
C1297      C1302   1.403       .  A
C1297      H1304   1.084       .  S
C1298      C1299   1.415       .  A
C1299      C1300   1.409       .  A
C1299      N1306   1.438       .  S
C1300      C1301   1.405       .  A
C1300      H1305   1.084       .  S
C1301      C1302   1.417       .  A
C1302      N1303   1.438       .  S
N1303      H1307   1.045       .  S
N1303      H1308   1.043       .  S
N1306      H1309   1.046       .  S
N1306      H1310   1.046       .  S
C1311      C1312   1.412       .  A
C1311      C1316   1.403       .  A
C1311      H1318   1.083       .  S
C1312      C1313   1.415       .  A
C1313      C1314   1.402       .  A
C1313      N1320   1.438       .  S
C1314      C1315   1.406       .  A
C1314      H1319   1.083       .  S
C1315      C1316   1.407       .  A
C1316      N1317   1.438   1_556  S
N1317      H1321   1.046       .  S
N1317      H1322   1.046       .  S
N1320      H1323   1.046       .  S
N1320      H1324   1.046       .  S
C1325      C1326   1.402       .  A
C1325      C1330   1.389       .  A
C1325      H1332   1.084       .  S
C1326      C1327   1.419       .  A
C1327      C1328   1.400       .  A
C1327      N1334   1.438       .  S
C1328      C1329   1.395       .  A
C1328      H2797   1.084       .  S
C1329      C2257   1.455       .  S
C1329      C1330   1.414       .  A
C1330      N1331   1.442       .  S
N1331      H1335   1.045       .  S
N1331      H1336   1.042       .  S
H1333      C2792   1.084   1_455  S
N1334      H1337   1.046       .  S
N1334      H1338   1.046       .  S
C1339      C1340   1.403       .  A
C1339      C1344   1.408       .  A
C1339      H1346   1.084       .  S
C1340      C1341   1.406       .  A
C1341      C1342   1.407       .  A
C1341      N1348   1.438       .  S
C1342      C1343   1.412       .  A
C1342      H1347   1.083       .  S
C1343      C1344   1.415       .  A
C1344      N1345   1.436       .  S
N1345      H1349   1.046       .  S
N1345      H1350   1.045       .  S
N1348      H1351   1.046       .  S
N1348      H1352   1.046       .  S
C1353      C1354   1.400       .  A
C1353      C1358   1.389       .  A
C1353      H1360   1.085       .  S
C1354      C1355   1.409       .  A
C1355      C1356   1.400       .  A
C1355      N1362   1.430       .  S
C1356      C1357   1.403       .  A
C1356      H1361   1.084       .  S
C1357      C1358   1.410       .  A
C1358      N1359   1.434       .  S
N1359      H1363   1.045       .  S
N1359      H1364   1.044       .  S
N1362      H1365   1.043       .  S
N1362      H1366   1.046       .  S
C1367      C1368   1.407       .  A
C1367      C1372   1.423       .  A
C1367      H1374   1.084       .  S
C1368      C1369   1.411       .  A
C1369      C1370   1.405       .  A
C1369      N1376   1.429       .  S
C1370      C1371   1.404       .  A
C1370      H1375   1.083       .  S
C1371      C1372   1.423       .  A
C1372      N1373   1.437   1_556  S
N1373      H1377   1.046   1_554  S
N1373      H1378   1.045       .  S
N1376      H1379   1.046       .  S
N1376      H1380   1.046       .  S
C1381      C1382   1.398       .  A
C1381      C1386   1.401       .  A
C1381      H1388   1.084       .  S
C1382      C1383   1.422       .  A
C1383      C1384   1.414       .  A
C1383      N1390   1.438       .  S
C1384      C1385   1.404       .  A
C1384      H1389   1.084       .  S
C1385      C1386   1.422       .  A
C1386      N1387   1.440       .  S
N1387      H1391   1.045       .  S
N1387      H1392   1.042       .  S
N1390      H1393   1.043       .  S
N1390      H1394   1.046       .  S
C1395      C1396   1.402       .  A
C1395      C1400   1.395       .  A
C1395      H1402   1.084       .  S
C1396      C1397   1.419       .  A
C1397      C1398   1.408       .  A
C1397      N1404   1.437       .  S
C1398      C1399   1.404       .  A
C1398      H1403   1.084       .  S
C1399      C1400   1.408       .  A
C1400      N1401   1.431       .  S
N1401      H1405   1.046       .  S
N1401      H1406   1.046       .  S
N1404      H1407   1.043       .  S
N1404      H1408   1.045       .  S
C1409      C1410   1.413       .  A
C1409      C1414   1.402       .  A
C1409      H1416   1.084       .  S
C1410      C1411   1.415       .  A
C1411      C1412   1.408       .  A
C1411      N1418   1.438       .  S
C1412      C1413   1.408       .  A
C1412      H1417   1.084       .  S
C1413      C1414   1.403       .  A
C1414      N1415   1.432       .  S
N1415      H1419   1.046       .  S
N1418      H1421   1.045       .  S
N1418      H1422   1.046       .  S
C1423      C1424   1.408       .  A
C1423      C1428   1.398       .  A
C1423      H1430   1.083       .  S
C1424      C1425   1.418       .  A
C1425      C1426   1.397       .  A
C1425      N1432   1.439       .  S
C1426      C1427   1.396       .  A
C1426      H1431   1.085       .  S
C1427      C1428   1.411       .  A
C1428      N1429   1.439       .  S
N1429      H1433   1.046       .  S
N1432      H1435   1.046       .  S
N1432      H1436   1.046       .  S
C1437      C1438   1.406       .  A
C1437      C1442   1.409       .  A
C1437      H1444   1.084       .  S
C1438      C1439   1.409       .  A
C1439      C1440   1.411       .  A
C1439      N1446   1.438       .  S
C1440      C1441   1.408       .  A
C1440      H1445   1.084       .  S
C1441      C1442   1.409       .  A
C1442      N1443   1.438       .  S
N1443      H1447   1.046       .  S
N1443      H1448   1.045       .  S
N1446      H1449   1.045       .  S
N1446      H1450   1.046       .  S
C1451      C1452   1.397       .  A
C1451      C1456   1.395       .  A
C1451      H1458   1.083       .  S
C1452      C1453   1.418       .  A
C1453      C1454   1.409       .  A
C1453      N1460   1.432       .  S
C1454      C1455   1.400       .  A
C1454      H1459   1.084       .  S
C1455      C1456   1.411       .  A
C1456      N1457   1.435       .  S
N1457      H1461   1.044       .  S
N1457      H1462   1.046       .  S
N1460      H1463   1.046       .  S
N1460      H1464   1.046       .  S
O1465     Zr1501   2.405       .  S
O1465      C1476   1.287       .  A
O1466     Zr1500   2.408       .  S
O1466      C1477   1.287       .  A
O1467     Zr1473   2.399       .  S
O1467      C1478   1.286       .  A
O1468     Zr1473   2.396       .  S
O1468      C1479   1.283       .  A
O1469     Zr1503   2.504       .  S
O1469      C1479   1.304       .  A
O1470     Zr1502   2.481       .  S
O1470      C1478   1.299       .  A
O1471     Zr1473   2.439       .  S
O1471      C1477   1.293       .  A
O1472     Zr1473   2.461       .  S
O1472      C1476   1.295       .  A
Zr1473     O1474   2.341       .  S
Zr1473     O1475   2.332       .  S
Zr1473     O1483   2.327       .  S
Zr1473     O1481   2.337       .  S
O1474     Zr1500   2.354       .  S
O1474     Zr1503   2.337       .  S
O1475     Zr1501   2.351       .  S
O1475     Zr1502   2.340       .  S
C1476      C2187   1.475       .  S
C1477      C2156   1.480       .  S
C1478      C2142   1.492       .  S
C1479      C2170   1.476       .  S
H1480      O1481   0.965       .  S
O1481     Zr1500   2.325       .  S
O1481     Zr1502   2.331       .  S
H1482      O1483   0.964       .  S
O1483     Zr1501   2.323       .  S
O1483     Zr1503   2.349       .  S
O1484     Zr1500   2.415       .  S
O1484      C1507   1.289       .  A
O1485     Zr1501   2.413       .  S
O1485      C1508   1.288       .  A
O1486     Zr1502   2.389       .  S
O1486      C1509   1.283       .  A
O1487     Zr1503   2.442       .  S
O1487      C1510   1.295       .  A
O1488     Zr1503   2.378       .  S
O1488      C1511   1.282       .  A
O1489     Zr1502   2.399       .  S
O1489      C1512   1.286       .  A
O1490     Zr1504   2.391       .  S
O1490      C1513   1.281       .  A
O1491     Zr1504   2.413       .  S
O1491      C1514   1.287       .  A
O1492     Zr1502   2.465       .  S
O1492      C1513   1.295       .  A
O1493     Zr1503   2.496       .  S
O1493      C1514   1.302       .  A
O1494     Zr1500   2.536       .  S
O1494      C1509   1.310       .  A
O1495     Zr1501   2.440       .  S
O1495      C1512   1.295       .  A
O1496     Zr1501   2.493       .  S
O1496      C1511   1.302       .  A
O1497     Zr1500   2.458       .  S
O1497      C1510   1.297       .  A
O1498     Zr1504   2.451       .  S
O1498      C1507   1.295       .  A
O1499     Zr1504   2.476       .  S
O1499      C1508   1.299       .  A
Zr1500     O1506   2.318       .  S
Zr1500     O1518   2.372       .  S
Zr1501     O1505   2.324       .  S
Zr1501     O1516   2.345       .  S
Zr1502     O1506   2.326       .  S
Zr1502     O1516   2.347       .  S
Zr1503     O1505   2.338       .  S
Zr1503     O1518   2.355       .  S
Zr1504     O1505   2.321       .  S
Zr1504     O1506   2.341       .  S
Zr1504     O1518   2.350       .  S
Zr1504     O1516   2.326       .  S
C1507      C2044   1.491       .  S
C1508      C2075   1.495       .  S
C1509      C2100   1.495       .  S
C1510      C2030   1.492       .  S
C1511      C2131   1.469       .  S
C1512      C2058   1.476       .  S
C1513      C2086   1.457       .  S
C1514      C2117   1.486       .  S
H1515      O1516   0.965       .  S
H1517      O1518   0.966       .  S
C1519      C1949   1.498       .  S
C1519      C1520   1.406   1_655  A
C1519      C2256   1.406       .  A
C1520      C2019   1.472   1_455  S
C1521      C2005   1.508   1_545  S
C1521      C1522   1.427       .  A
C1522      C1977   1.519       .  S
C1522      C1523   1.443       .  A
C1523      C1963   1.495       .  S
C1524      C1988   1.500       .  S
C1524      C2251   1.406   1_545  A
C1525      C1526   1.401       .  A
C1525      C1530   1.391       .  A
C1526      C1527   1.401       .  A
C1526      H1531   1.084       .  S
C1527      C1960   1.470       .  S
C1527      C1528   1.404       .  A
C1528      C1529   1.397       .  A
C1528      H1532   1.084       .  S
C1529      C1932   1.459       .  S
C1529      C1530   1.387       .  A
C1530      H1533   1.085       .  S
C1534      C1921   1.509       .  S
C1534      C2267   1.417       .  A
C1534      C1539   1.422       .  A
C1535      C2266   1.417       .  A
C1535      C1536   1.415   1_565  A
C1535      H1540   1.083       .  S
C1536      C2173   1.487       .  S
C1536      C1537   1.393       .  A
C1537      C1538   1.395   1_545  A
C1537      H1541   1.085       .  S
C1538      C2002   1.489       .  S
C1538      C2271   1.413       .  A
C1539      C2270   1.413       .  A
C1539      H1542   1.083       .  S
C1543      C2184   1.486       .  S
C1543      C1544   1.410       .  A
C1543      C1548   1.398       .  A
C1544      C1545   1.406       .  A
C1544      H1549   1.074       .  S
C1545      C1991   1.520       .  S
C1545      C1546   1.416       .  A
C1546      C1547   1.415       .  A
C1546      H2282   1.081   1_545  S
C1547      C2639   1.490   1_545  S
C1547      C1548   1.397       .  A
C1548      H1551   1.083       .  S
H1550      C2278   1.081       .  S
C1552      C1890   1.507       .  S
C1552      C1557   1.403       .  A
C1553      C1554   1.411   1_455  A
C1553      H1558   1.081       .  S
C1554      C2072   1.479       .  S
C1554      C1555   1.392       .  A
C1555      C1556   1.395       .  A
C1555      H1559   1.085       .  S
C1556      C2016   1.475       .  S
C1557      H1560   1.078       .  S
C1561      C2128   1.485       .  S
C1561      C1562   1.417       .  A
C1561      C1566   1.397       .  A
C1562      C1563   1.426       .  A
C1562      H1567   1.073       .  S
C1563      C1974   1.538       .  S
C1563      C1564   1.418       .  A
C1564      C1565   1.394       .  A
C1564      H1568   1.075       .  S
C1565      C1876   1.482       .  S
C1565      C1566   1.388       .  A
C1566      H1569   1.084       .  S
C1570      C2114   1.490       .  S
C1570      C1571   1.416       .  A
C1570      C1575   1.407       .  A
C1571      C1572   1.413       .  A
C1571      H1576   1.083       .  S
C1572      C1946   1.486       .  S
C1572      C1573   1.396       .  A
C1573      C1574   1.390       .  A
C1573      H1577   1.085       .  S
C1574      C1862   1.470       .  S
C1574      C1575   1.402       .  A
C1575      H1578   1.084       .  S
O1579     Zr1615   2.364       .  S
O1579      C1590   1.276       .  A
O1580     Zr1614   2.443       .  S
O1580      C1591   1.294       .  A
O1581     Zr1587   2.374       .  S
O1581      C1592   1.282       .  A
O1582     Zr1587   2.393       .  S
O1582      C1593   1.283       .  A
O1583     Zr1617   2.497       .  S
O1583      C1593   1.302       .  A
O1584     Zr1616   2.514       .  S
O1584      C1592   1.306       .  A
O1585     Zr1587   2.417       .  S
O1585      C1591   1.289       .  A
O1586     Zr1587   2.475       .  S
O1586      C1590   1.299       .  A
Zr1587     O1588   2.337       .  S
Zr1587     O1589   2.322       .  S
Zr1587     O1597   2.321       .  S
Zr1587     O1595   2.348       .  S
O1588     Zr1614   2.321       .  S
O1588     Zr1617   2.325       .  S
O1589     Zr1615   2.309       .  S
O1589     Zr1616   2.349       .  S
C1590      C1935   1.483       .  S
C1591      C1806   1.481       .  S
C1592      C1893   1.498       .  S
C1593      C1823   1.479       .  S
H1594      O1595   0.964       .  S
O1595     Zr1614   2.351       .  S
O1595     Zr1616   2.338       .  S
H1596      O1597   0.965       .  S
O1597     Zr1615   2.360       .  S
O1597     Zr1617   2.352       .  S
O1598     Zr1614   2.426       .  S
O1598      C1621   1.290       .  A
O1599     Zr1615   2.376       .  S
O1599      C1622   1.283       .  A
O1600     Zr1616   2.450       .  S
O1600      C1623   1.295       .  A
O1601     Zr1617   2.397       .  S
O1601      C1624   1.285       .  A
O1602     Zr1617   2.394       .  S
O1602      C1625   1.286       .  A
O1603     Zr1616   2.374       .  S
O1603      C1626   1.273       .  A
O1604     Zr1618   2.417       .  S
O1604      C1627   1.288       .  A
O1605     Zr1618   2.395       .  S
O1605      C1628   1.285       .  A
O1606     Zr1616   2.501       .  S
O1606      C1627   1.303       .  A
O1607     Zr1617   2.490       .  S
O1607      C1628   1.300       .  A
O1608     Zr1614   2.405       .  S
O1608      C1623   1.288       .  A
O1609     Zr1615   2.574       .  S
O1609      C1626   1.313       .  A
O1610     Zr1615   2.478       .  S
O1610      C1625   1.301       .  A
O1611     Zr1614   2.498       .  S
O1611      C1624   1.302       .  A
O1612     Zr1618   2.463       .  S
O1612      C1621   1.297       .  A
O1613     Zr1618   2.490       .  S
O1613      C1622   1.302       .  A
Zr1614     O1620   2.362       .  S
Zr1614     O1632   2.322       .  S
Zr1615     O1619   2.356       .  S
Zr1615     O1630   2.317       .  S
Zr1616     O1620   2.343       .  S
Zr1616     O1630   2.342       .  S
Zr1617     O1619   2.344       .  S
Zr1617     O1632   2.333       .  S
Zr1618     O1619   2.324       .  S
Zr1618     O1620   2.340       .  S
Zr1618     O1632   2.343       .  S
Zr1618     O1630   2.326       .  S
C1621      C1834   1.476       .  S
C1622      C1865   1.479       .  S
C1623      C1848   1.481       .  S
C1624      C1781   1.487       .  S
C1625      C1879   1.466       .  S
C1626      C1918   1.529       .  S
C1627      C1904   1.493       .  S
C1628      C1792   1.474       .  S
H1629      O1630   0.961       .  S
H1631      O1632   0.965       .  S
C1633      C2103   1.513   1_554  S
C1633      C1634   1.423       .  A
C1633      C1638   1.418       .  A
C1634      C1635   1.414       .  A
C1634      H1639   1.083       .  S
C1635      C1636   1.391       .  A
C1636      C1637   1.395       .  A
C1637      C1767   1.483       .  S
C1637      C1638   1.409       .  A
C1638      H1641   1.082   1_554  S
C1642      C1764   1.487       .  S
C1642      C2379   1.410   1_545  A
C1643      C1708   1.500       .  S
C1643      C2376   1.421       .  A
C1644      C1722   1.477       .  S
C1644      C2375   1.421       .  A
C1644      C1645   1.423       .  A
C1645      C1739   1.498       .  S
C1646      C1750   1.497   1_556  S
C1646      C1647   1.403       .  A
C1647      C1697   1.471       .  S
C1647      C2374   1.410       .  A
C1648      C1851   1.471   1_556  S
C1648      C1649   1.396       .  A
C1648      C1653   1.399       .  A
C1649      C2382   1.391       .  A
C1649      H1654   1.085       .  S
C1650      C2159   1.460       .  S
C1650      C2381   1.391   1_545  A
C1650      C1651   1.398       .  A
C1651      C2384   1.401   1_545  A
C1651      H1655   1.084       .  S
C1652      C1725   1.470       .  S
C1652      C2383   1.401       .  A
C1652      C1653   1.405       .  A
C1653      H1656   1.084   1_556  S
C1657      C1809   1.462       .  S
C1657      C1658   1.400       .  A
C1658      H1663   1.078       .  S
C1659      C1736   1.510   1_655  S
C1659      C1660   1.418       .  A
C1660      C1661   1.403       .  A
C1660      H1664   1.080       .  S
C1661      C2089   1.465       .  S
C1661      C1662   1.387       .  A
C1662      H1665   1.086       .  S
C1666      C1778   1.502       .  S
C1666      C1667   1.409       .  A
C1666      C1671   1.414       .  A
C1667      C1668   1.404       .  A
C1667      H1672   1.083       .  S
C1668      C2033   1.488       .  S
C1668      C1669   1.403       .  A
C1669      C1670   1.407       .  A
C1669      H1673   1.084       .  S
C1670      C1711   1.498       .  S
C1670      C1671   1.413       .  A
C1671      H1674   1.083       .  S
C1675      C2877   1.486       .  S
C1675      C1676   1.414       .  A
C1675      C1680   1.397       .  A
C1676      C1677   1.412       .  A
C1676      H1681   1.083       .  S
C1677      C1837   1.479       .  S
C1677      C1678   1.398       .  A
C1678      C1679   1.395       .  A
C1678      H1682   1.085       .  S
C1679      C1694   1.471       .  S
C1679      C1680   1.397       .  A
C1680      H2415   1.084       .  S
H1683      C2412   1.084   1_545  S
C1684      C2047   1.485   1_554  S
C1684      C1685   1.408       .  A
C1684      C1689   1.402       .  A
C1685      C1686   1.403       .  A
C1685      H1690   1.083       .  S
C1686      C1795   1.484       .  S
C1686      C1687   1.410       .  A
C1687      C1688   1.402       .  A
C1687      H1691   1.084       .  S
C1688      C1753   1.477       .  S
C1688      C1689   1.397       .  A
C1689      H1692   1.085   1_554  S
C1693      C1694   1.407       .  A
C1693      C1698   1.401   1_556  A
C1693      H1700   1.083   1_556  S
C1694      C1695   1.408       .  A
C1695      C1696   1.394       .  A
C1695      N1702   1.438       .  S
C1696      C1697   1.400       .  A
C1696      H1701   1.084       .  S
C1697      C1698   1.405   1_556  A
C1698      N1699   1.437       .  S
N1699      H1703   1.045       .  S
N1699      H1704   1.043       .  S
N1702      H1705   1.046       .  S
N1702      H1706   1.046       .  S
C1707      C1708   1.403       .  A
C1707      C1712   1.403       .  A
C1707      H1714   1.084       .  S
C1708      C1709   1.419   1_556  A
C1709      C1710   1.407   1_554  A
C1709      N1716   1.437       .  S
C1710      C1711   1.406       .  A
C1710      H1715   1.084   1_556  S
C1711      C1712   1.421       .  A
C1712      N1713   1.437       .  S
N1713      H1717   1.045       .  S
N1713      H1718   1.043       .  S
N1716      H1719   1.041       .  S
N1716      H1720   1.045       .  S
C1721      C1722   1.402       .  A
C1721      C1726   1.399       .  A
C1721      H1728   1.084       .  S
C1722      C1723   1.414   1_556  A
C1723      C1724   1.394       .  A
C1723      N1730   1.437       .  S
C1724      C1725   1.401   1_554  A
C1724      H1729   1.085       .  S
C1725      C1726   1.416       .  A
C1726      N1727   1.439       .  S
N1727      H1731   1.046       .  S
N1727      H1732   1.042       .  S
N1730      H1733   1.041       .  S
N1730      H1734   1.045       .  S
C1735      C1736   1.411   1_655  A
C1735      C1740   1.402       .  A
C1735      H1742   1.079       .  S
C1737      C1738   1.401       .  A
C1737      N1744   1.436       .  S
C1738      C1739   1.400   1_554  A
C1738      H1743   1.081       .  S
C1740      N1741   1.437       .  S
N1741      H1745   1.046       .  S
N1741      H1746   1.045       .  S
N1744      H1747   1.044       .  S
N1744      H1748   1.045       .  S
C1749      C1750   1.403   1_556  A
C1749      C1754   1.400       .  A
C1749      H1756   1.081       .  S
C1750      C1751   1.414       .  A
C1751      C1752   1.410       .  A
C1751      N1758   1.438       .  S
C1752      C1753   1.401       .  A
C1752      H1757   1.083       .  S
C1753      C1754   1.409   1_554  A
C1754      N1755   1.438       .  S
N1755      H1759   1.046       .  S
N1755      H1760   1.046       .  S
N1758      H1761   1.044       .  S
N1758      H1762   1.046       .  S
C1763      H1770   1.083       .  S
C1764      C1765   1.413       .  A
C1765      C1766   1.412       .  A
C1765      N1772   1.436       .  S
C1766      C1767   1.405   1_556  A
C1766      H1771   1.083       .  S
C1767      C1768   1.412       .  A
N1769      H1773   1.046       .  S
N1769      H1774   1.045       .  S
N1772      H1775   1.042   1_655  S
N1772      H1776   1.045       .  S
C1777      C1778   1.410       .  A
C1777      C1782   1.412       .  A
C1777      H1784   1.084       .  S
C1778      C1779   1.416       .  A
C1779      C1780   1.405   1_556  A
C1779      N1786   1.439       .  S
C1780      C1781   1.405       .  A
C1780      H1785   1.085       .  S
C1781      C1782   1.417   1_554  A
C1782      N1783   1.436       .  S
N1783      H1787   1.046       .  S
N1783      H1788   1.043       .  S
N1786      H1789   1.046   1_556  S
N1786      H1790   1.046   1_556  S
C1791      C1792   1.405       .  A
C1791      C1796   1.399       .  A
C1791      H1798   1.085       .  S
C1792      C1793   1.408       .  A
C1793      C1794   1.415       .  A
C1793      N1800   1.437       .  S
C1794      C1795   1.409       .  A
C1794      H1799   1.083       .  S
C1795      C1796   1.408       .  A
C1796      N1797   1.439       .  S
N1797      H1801   1.045       .  S
N1797      H1802   1.046   1_554  S
N1800      H1803   1.045       .  S
N1800      H1804   1.046       .  S
C1805      C1806   1.411       .  A
C1805      C1810   1.400       .  A
C1805      H1812   1.084       .  S
C1806      C1807   1.416       .  A
C1807      C1808   1.394       .  A
C1807      N1814   1.436       .  S
C1808      C1809   1.397       .  A
C1808      H1813   1.085       .  S
C1809      C1810   1.410       .  A
C1810      N1811   1.438       .  S
N1811      H1815   1.045       .  S
N1814      H1817   1.042       .  S
N1814      H1818   1.046       .  S
C1819      C1820   1.400       .  A
C1819      C1824   1.405       .  A
C1819      H1826   1.084       .  S
C1820      C1821   1.422       .  A
C1821      C1822   1.413       .  A
C1821      N1828   1.438       .  S
C1822      C1823   1.399       .  A
C1822      H1827   1.083       .  S
C1823      C1824   1.414       .  A
C1824      N1825   1.437       .  S
N1825      H1829   1.046       .  S
N1825      H1830   1.044       .  S
N1828      H1832   1.046       .  S
C1833      C1834   1.403       .  A
C1833      C1838   1.399       .  A
C1833      H1840   1.084       .  S
C1834      C1835   1.419   1_554  A
C1835      C1836   1.406       .  A
C1835      N1842   1.440       .  S
C1836      C1837   1.404       .  A
C1836      H1841   1.084       .  S
C1837      C1838   1.411   1_556  A
C1838      N1839   1.433       .  S
N1839      H1843   1.045   1_554  S
N1839      H1844   1.045       .  S
N1842      H1845   1.043   1_556  S
N1842      H1846   1.045       .  S
C1847      C1848   1.409       .  A
C1847      C1852   1.391       .  A
C1847      H1854   1.084       .  S
C1848      C1849   1.412       .  A
C1849      C1850   1.406       .  A
C1849      N1856   1.432       .  S
C1850      C1851   1.404       .  A
C1850      H1855   1.084       .  S
C1851      C1852   1.403       .  A
C1852      N1853   1.434   1_554  S
N1853      H1857   1.046       .  S
N1853      H1858   1.046       .  S
N1856      H1859   1.046       .  S
N1856      H1860   1.046       .  S
C1861      C1862   1.404       .  A
C1861      C1866   1.404       .  A
C1861      H1868   1.084       .  S
C1862      C1863   1.409       .  A
C1863      C1864   1.394       .  A
C1863      N1870   1.440       .  S
C1864      C1865   1.409       .  A
C1864      H1869   1.085       .  S
C1865      C1866   1.418       .  A
C1866      N1867   1.438       .  S
N1867      H1871   1.045       .  S
N1867      H1872   1.041       .  S
N1870      H1873   1.043       .  S
N1870      H1874   1.046       .  S
C1875      C1876   1.409       .  A
C1875      C1880   1.396       .  A
C1875      H1882   1.084       .  S
C1876      C1877   1.414       .  A
C1877      C1878   1.399       .  A
C1877      N1884   1.437       .  S
C1878      C1879   1.406       .  A
C1878      H1883   1.085       .  S
C1879      C1880   1.411       .  A
C1880      N1881   1.439       .  S
N1881      H1885   1.046       .  S
N1881      H1886   1.042       .  S
N1884      H1887   1.043       .  S
N1884      H1888   1.045       .  S
C1889      C1890   1.420       .  A
C1889      C1894   1.413       .  A
C1889      H1896   1.081       .  S
C1890      C1891   1.408       .  A
C1891      C1892   1.397       .  A
C1891      N1898   1.433       .  S
C1892      C1893   1.415       .  A
C1892      H1897   1.083       .  S
C1893      C1894   1.406       .  A
C1894      N1895   1.435       .  S
N1895      H1899   1.045       .  S
N1895      H1900   1.046       .  S
N1898      H1901   1.046       .  S
N1898      H1902   1.046       .  S
C1903      C1904   1.405       .  A
C1903      C1908   1.418       .  A
C1903      H1910   1.083       .  S
C1904      C1905   1.420       .  A
C1905      C1906   1.381       .  A
C1905      N1912   1.423       .  S
C1906      C1907   1.390       .  A
C1906      H1911   1.085       .  S
C1907      C2279   1.490       .  S
C1907      C1908   1.427       .  A
C1908      N2641   1.438       .  S
N1909      C2640   1.438   1_545  S
N1909      H1913   1.046       .  S
N1909      H1914   1.043       .  S
N1912      H1915   1.042       .  S
N1912      H1916   1.042       .  S
C1917      C1918   1.420       .  A
C1917      C1922   1.399       .  A
C1917      H1924   1.083       .  S
C1918      C1919   1.425       .  A
C1919      C1920   1.429       .  A
C1919      N1926   1.435       .  S
C1920      C1921   1.417       .  A
C1920      H1925   1.083       .  S
C1921      C1922   1.410       .  A
C1922      N1923   1.442       .  S
N1923      H1927   1.046       .  S
N1923      H1928   1.041       .  S
N1926      H1929   1.041       .  S
N1926      H1930   1.045       .  S
C1931      C1932   1.387       .  A
C1931      C1936   1.394       .  A
C1931      H1938   1.084       .  S
C1932      C1933   1.409       .  A
C1933      C1934   1.402       .  A
C1933      N1940   1.437       .  S
C1934      C1935   1.403       .  A
C1934      H1939   1.083       .  S
C1935      C1936   1.430       .  A
C1936      N1937   1.440       .  S
N1937      H1941   1.046       .  S
N1937      H1942   1.046       .  S
N1940      H1943   1.046       .  S
N1940      H1944   1.046       .  S
C1945      C1946   1.405       .  A
C1945      C1950   1.398       .  A
C1945      H1952   1.085       .  S
C1946      C1947   1.417       .  A
C1947      C1948   1.405       .  A
C1947      N1954   1.438       .  S
C1948      C1949   1.407       .  A
C1948      H1953   1.084       .  S
C1949      C1950   1.416       .  A
C1950      N1951   1.438       .  S
N1951      H1955   1.045       .  S
N1951      H1956   1.042       .  S
N1954      H1957   1.042       .  S
N1954      H1958   1.046       .  S
C1959      C1960   1.395       .  A
C1959      C1964   1.390       .  A
C1959      H1966   1.085       .  S
C1960      C1961   1.406       .  A
C1961      C1962   1.408       .  A
C1961      N1968   1.437       .  S
C1962      C1963   1.408       .  A
C1963      C1964   1.423       .  A
C1964      N1965   1.433       .  S
N1965      H1969   1.045       .  S
N1965      H1970   1.036       .  S
N1968      H1971   1.045       .  S
C1973      C1974   1.416       .  A
C1973      C1978   1.394       .  A
C1973      H1980   1.073       .  S
C1974      C1975   1.429       .  A
C1975      C1976   1.421       .  A
C1975      N1982   1.435       .  S
C1976      C1977   1.411       .  A
C1976      H1981   1.080       .  S
C1977      C1978   1.403       .  A
C1978      N1979   1.427       .  S
N1979      H1983   1.045       .  S
N1979      H1984   1.046       .  S
N1982      H1985   1.046       .  S
N1982      H1986   1.046       .  S
C1987      C1988   1.399       .  A
C1987      C1992   1.406       .  A
C1987      H1994   1.084       .  S
C1988      C2721   1.413       .  A
C1989      C2720   1.413       .  A
C1989      C2722   1.406       .  A
C1989      N1996   1.439       .  S
C1990      C2721   1.406       .  A
C1990      C1991   1.411       .  A
C1990      H2727   1.080       .  S
C1991      C1992   1.433       .  A
C1992      N1993   1.433       .  S
N1993      H1997   1.045       .  S
N1993      H1998   1.044       .  S
H1995      C2722   1.080       .  S
N1996      H1999   1.041       .  S
N1996      H2000   1.045       .  S
C2001      C2002   1.408       .  A
C2001      C2006   1.413   1_565  A
C2001      H2008   1.084       .  S
C2002      C2735   1.416       .  A
C2003      C2734   1.416       .  A
C2003      C2004   1.398       .  A
C2003      N2010   1.440       .  S
C2004      C2737   1.403       .  A
C2004      H2009   1.079       .  S
C2005      C2736   1.403       .  A
C2005      C2006   1.419   1_565  A
C2006      N2007   1.437       .  S
N2007      H2011   1.046       .  S
N2007      H2012   1.043       .  S
N2010      H2013   1.043       .  S
N2010      H2014   1.046       .  S
C2015      C2016   1.407       .  A
C2015      C2020   1.396       .  A
C2015      H2022   1.083       .  S
C2017      C2018   1.391       .  A
C2017      N2024   1.433       .  S
C2018      H2023   1.084       .  S
C2019      C2020   1.406       .  A
C2020      N2021   1.439       .  S
N2021      H2025   1.045       .  S
N2021      H2026   1.042   1_655  S
N2024      H2027   1.046       .  S
N2024      H2028   1.046       .  S
C2029      C2030   1.407       .  A
C2029      C2034   1.403       .  A
C2029      H2036   1.084       .  S
C2030      C2031   1.415       .  A
C2031      C2032   1.409       .  A
C2031      N2038   1.438       .  S
C2032      C2033   1.405       .  A
C2032      H2037   1.084       .  S
C2033      C2034   1.417       .  A
C2034      N2035   1.438       .  S
N2035      H2039   1.045       .  S
N2035      H2040   1.043       .  S
N2038      H2041   1.046       .  S
N2038      H2042   1.046       .  S
C2043      C2044   1.412       .  A
C2043      C2048   1.403       .  A
C2043      H2050   1.083       .  S
C2044      C2045   1.415       .  A
C2045      C2046   1.402       .  A
C2045      N2052   1.438       .  S
C2046      C2047   1.406       .  A
C2046      H2051   1.083       .  S
C2047      C2048   1.407       .  A
C2048      N2049   1.438   1_556  S
N2049      H2053   1.046       .  S
N2049      H2054   1.046       .  S
N2052      H2055   1.046       .  S
N2052      H2056   1.046       .  S
C2057      C2058   1.402       .  A
C2057      C2062   1.389       .  A
C2057      H2064   1.084       .  S
C2058      C2059   1.419       .  A
C2059      C2060   1.400       .  A
C2059      N2066   1.438       .  S
C2060      C2061   1.395       .  A
C2061      C2062   1.414       .  A
C2062      N2063   1.442       .  S
N2063      H2067   1.045       .  S
N2063      H2068   1.042       .  S
N2066      H2069   1.046       .  S
N2066      H2070   1.046       .  S
C2071      C2072   1.403       .  A
C2071      C2076   1.408       .  A
C2071      H2078   1.084       .  S
C2072      C2073   1.406       .  A
C2073      C2074   1.407       .  A
C2073      N2080   1.438       .  S
C2074      C2075   1.412       .  A
C2074      H2079   1.083       .  S
C2075      C2076   1.415       .  A
C2076      N2077   1.436       .  S
N2077      H2081   1.046       .  S
N2077      H2082   1.045       .  S
N2080      H2083   1.046       .  S
N2080      H2084   1.046       .  S
C2085      C2086   1.400       .  A
C2085      C2090   1.389       .  A
C2085      H2092   1.085       .  S
C2086      C2087   1.409       .  A
C2087      C2088   1.400       .  A
C2087      N2094   1.430       .  S
C2088      C2089   1.403       .  A
C2088      H2093   1.084       .  S
C2089      C2090   1.410       .  A
C2090      N2091   1.434       .  S
N2091      H2095   1.045       .  S
N2091      H2096   1.044       .  S
N2094      H2097   1.043       .  S
N2094      H2098   1.046       .  S
C2099      C2100   1.407       .  A
C2099      C2104   1.423       .  A
C2099      H2106   1.084       .  S
C2100      C2101   1.411       .  A
C2101      C2102   1.405       .  A
C2101      N2108   1.429       .  S
C2102      C2103   1.404       .  A
C2102      H2107   1.083       .  S
C2103      C2104   1.423       .  A
C2104      N2105   1.437   1_556  S
N2105      H2109   1.046   1_554  S
N2105      H2110   1.045       .  S
N2108      H2111   1.046       .  S
N2108      H2112   1.046       .  S
C2113      C2114   1.398       .  A
C2113      C2118   1.401       .  A
C2113      H2120   1.084       .  S
C2114      C2115   1.422       .  A
C2115      C2116   1.414       .  A
C2115      N2122   1.438       .  S
C2116      C2117   1.404       .  A
C2116      H2121   1.084       .  S
C2117      C2118   1.422       .  A
C2118      N2119   1.440       .  S
N2119      H2123   1.045       .  S
N2119      H2124   1.042       .  S
N2122      H2125   1.043       .  S
N2122      H2126   1.046       .  S
C2127      C2128   1.402       .  A
C2127      C2132   1.395       .  A
C2127      H2134   1.084       .  S
C2128      C2129   1.419       .  A
C2129      C2130   1.408       .  A
C2129      N2136   1.437       .  S
C2130      C2131   1.404       .  A
C2130      H2135   1.084       .  S
C2131      C2132   1.408       .  A
C2132      N2133   1.431       .  S
N2133      H2137   1.046       .  S
N2133      H2138   1.046       .  S
N2136      H2139   1.043       .  S
N2136      H2140   1.045       .  S
C2141      C2142   1.413       .  A
C2141      C2146   1.402       .  A
C2141      H2148   1.084       .  S
C2142      C2143   1.415       .  A
C2143      C2144   1.408       .  A
C2143      N2150   1.438       .  S
C2144      C2145   1.408       .  A
C2144      H2149   1.084       .  S
C2145      C2407   1.486   1_545  S
C2145      C2146   1.403       .  A
C2146      N2147   1.432   1_545  S
N2147      H2151   1.046       .  S
N2147      H2884   1.046       .  S
N2150      H2153   1.045       .  S
N2150      H2154   1.046       .  S
H2152      N2879   1.046       .  S
C2155      C2156   1.408       .  A
C2155      C2160   1.398       .  A
C2155      H2162   1.083       .  S
C2156      C2157   1.418       .  A
C2157      C2158   1.397       .  A
C2157      N2164   1.439       .  S
C2158      C2159   1.396       .  A
C2158      H2163   1.085       .  S
C2159      C2160   1.411       .  A
C2160      N2161   1.439       .  S
N2161      H2165   1.046       .  S
N2161      H2898   1.044   1_545  S
N2164      H2167   1.046       .  S
N2164      H2168   1.046       .  S
H2166      N2893   1.044       .  S
C2169      C2170   1.406       .  A
C2169      C2174   1.409       .  A
C2169      H2176   1.084       .  S
C2170      C2171   1.409       .  A
C2171      C2172   1.411       .  A
C2171      N2178   1.438       .  S
C2172      C2173   1.408       .  A
C2172      H2177   1.084       .  S
C2173      C2174   1.409       .  A
C2174      N2175   1.438       .  S
N2175      H2179   1.046       .  S
N2175      H2180   1.045       .  S
N2178      H2181   1.045       .  S
N2178      H2182   1.046       .  S
C2183      C2184   1.397       .  A
C2183      C2188   1.395       .  A
C2183      H2190   1.083       .  S
C2184      C2185   1.418       .  A
C2185      C2186   1.409       .  A
C2185      N2192   1.432       .  S
C2186      C2187   1.400       .  A
C2186      H2191   1.084       .  S
C2187      C2188   1.411       .  A
C2188      N2189   1.435       .  S
N2189      H2193   1.044       .  S
N2189      H2194   1.046       .  S
N2192      H2195   1.046       .  S
N2192      H2196   1.046       .  S
O2197     Zr2233   2.405       .  S
O2197      C2208   1.287       .  A
O2198     Zr2232   2.408       .  S
O2198      C2209   1.287       .  A
O2199     Zr2205   2.399       .  S
O2199      C2210   1.286       .  A
O2200     Zr2205   2.396       .  S
O2200      C2211   1.283       .  A
O2201     Zr2235   2.504       .  S
O2201      C2211   1.304       .  A
O2202     Zr2234   2.481       .  S
O2202      C2210   1.299       .  A
O2203     Zr2205   2.439       .  S
O2203      C2209   1.293       .  A
O2204     Zr2205   2.461       .  S
O2204      C2208   1.295       .  A
Zr2205     O2206   2.341       .  S
Zr2205     O2207   2.332       .  S
Zr2205     O2215   2.327       .  S
Zr2205     O2213   2.337       .  S
O2206     Zr2232   2.354       .  S
O2206     Zr2235   2.337       .  S
O2207     Zr2233   2.351       .  S
O2207     Zr2234   2.340       .  S
C2208      C2919   1.475       .  S
C2209      C2888   1.480       .  S
C2210      C2874   1.492       .  S
C2211      C2902   1.476       .  S
H2212      O2213   0.965       .  S
O2213     Zr2232   2.325       .  S
O2213     Zr2234   2.331       .  S
H2214      O2215   0.964       .  S
O2215     Zr2233   2.323       .  S
O2215     Zr2235   2.349       .  S
O2216     Zr2232   2.415       .  S
O2216      C2239   1.289       .  A
O2217     Zr2233   2.413       .  S
O2217      C2240   1.288       .  A
O2218     Zr2234   2.389       .  S
O2218      C2241   1.283       .  A
O2219     Zr2235   2.442       .  S
O2219      C2242   1.295       .  A
O2220     Zr2235   2.378       .  S
O2220      C2243   1.282       .  A
O2221     Zr2234   2.399       .  S
O2221      C2244   1.286       .  A
O2222     Zr2236   2.391       .  S
O2222      C2245   1.281       .  A
O2223     Zr2236   2.413       .  S
O2223      C2246   1.287       .  A
O2224     Zr2234   2.465       .  S
O2224      C2245   1.295       .  A
O2225     Zr2235   2.496       .  S
O2225      C2246   1.302       .  A
O2226     Zr2232   2.536       .  S
O2226      C2241   1.310       .  A
O2227     Zr2233   2.440       .  S
O2227      C2244   1.295       .  A
O2228     Zr2233   2.493       .  S
O2228      C2243   1.302       .  A
O2229     Zr2232   2.458       .  S
O2229      C2242   1.297       .  A
O2230     Zr2236   2.451       .  S
O2230      C2239   1.295       .  A
O2231     Zr2236   2.476       .  S
O2231      C2240   1.299       .  A
Zr2232     O2238   2.318       .  S
Zr2232     O2250   2.372       .  S
Zr2233     O2237   2.324       .  S
Zr2233     O2248   2.345       .  S
Zr2234     O2238   2.326       .  S
Zr2234     O2248   2.347       .  S
Zr2235     O2237   2.338       .  S
Zr2235     O2250   2.355       .  S
Zr2236     O2237   2.321       .  S
Zr2236     O2238   2.341       .  S
Zr2236     O2250   2.350       .  S
Zr2236     O2248   2.326       .  S
C2239      C2776   1.491       .  S
C2240      C2807   1.495       .  S
C2241      C2832   1.495       .  S
C2242      C2762   1.492       .  S
C2243      C2863   1.469       .  S
C2244      C2790   1.476       .  S
C2245      C2818   1.457       .  S
C2246      C2849   1.486       .  S
H2247      O2248   0.965       .  S
H2249      O2250   0.966       .  S
C2251      C2681   1.498       .  S
C2251      C2252   1.406   1_655  A
C2252      C2751   1.472   1_455  S
C2253      C2737   1.508       .  S
C2253      C2254   1.427       .  A
C2254      C2709   1.519       .  S
C2254      C2255   1.443       .  A
C2255      C2695   1.495       .  S
C2256      C2720   1.500       .  S
C2257      C2258   1.401       .  A
C2257      C2262   1.391       .  A
C2258      C2259   1.401       .  A
C2258      H2263   1.084       .  S
C2259      C2692   1.470       .  S
C2259      C2260   1.404       .  A
C2260      C2261   1.397       .  A
C2260      H2264   1.084       .  S
C2261      C2664   1.459       .  S
C2261      C2262   1.387       .  A
C2262      H2265   1.085       .  S
C2266      C2653   1.509       .  S
C2266      C2271   1.422       .  A
C2267      C2268   1.415       .  A
C2267      H2272   1.083       .  S
C2268      C2905   1.487       .  S
C2268      C2269   1.393       .  A
C2269      C2270   1.395       .  A
C2269      H2273   1.085       .  S
C2270      C2734   1.489       .  S
C2271      H2274   1.083       .  S
C2275      C2916   1.486       .  S
C2275      C2276   1.410       .  A
C2275      C2280   1.398       .  A
C2276      C2277   1.406       .  A
C2276      H2281   1.074       .  S
C2277      C2723   1.520       .  S
C2277      C2278   1.416       .  A
C2278      C2279   1.415       .  A
C2279      C2280   1.397       .  A
C2280      H2283   1.083       .  S
C2284      C2622   1.507       .  S
C2284      C2289   1.403       .  A
C2285      C2286   1.411   1_455  A
C2285      H2290   1.081       .  S
C2286      C2804   1.479       .  S
C2286      C2287   1.392       .  A
C2287      C2288   1.395       .  A
C2287      H2291   1.085       .  S
C2288      C2748   1.475       .  S
C2289      H2292   1.078       .  S
C2293      C2860   1.485       .  S
C2293      C2294   1.417       .  A
C2293      C2298   1.397       .  A
C2294      C2295   1.426       .  A
C2294      H2299   1.073       .  S
C2295      C2706   1.538       .  S
C2295      C2296   1.418       .  A
C2296      C2297   1.394       .  A
C2296      H2300   1.075       .  S
C2297      C2608   1.482       .  S
C2297      C2298   1.388       .  A
C2298      H2301   1.084       .  S
C2302      C2846   1.490       .  S
C2302      C2303   1.416       .  A
C2302      C2307   1.407       .  A
C2303      C2304   1.413       .  A
C2303      H2308   1.083       .  S
C2304      C2678   1.486       .  S
C2304      C2305   1.396       .  A
C2305      C2306   1.390       .  A
C2305      H2309   1.085       .  S
C2306      C2594   1.470       .  S
C2306      C2307   1.402       .  A
C2307      H2310   1.084       .  S
O2311     Zr2347   2.364       .  S
O2311      C2322   1.276       .  A
O2312     Zr2346   2.443       .  S
O2312      C2323   1.294       .  A
O2313     Zr2319   2.374       .  S
O2313      C2324   1.282       .  A
O2314     Zr2319   2.393       .  S
O2314      C2325   1.283       .  A
O2315     Zr2349   2.497       .  S
O2315      C2325   1.302       .  A
O2316     Zr2348   2.514       .  S
O2316      C2324   1.306       .  A
O2317     Zr2319   2.417       .  S
O2317      C2323   1.289       .  A
O2318     Zr2319   2.475       .  S
O2318      C2322   1.299       .  A
Zr2319     O2320   2.337       .  S
Zr2319     O2321   2.322       .  S
Zr2319     O2329   2.321       .  S
Zr2319     O2327   2.348       .  S
O2320     Zr2346   2.321       .  S
O2320     Zr2349   2.325       .  S
O2321     Zr2347   2.309       .  S
O2321     Zr2348   2.349       .  S
C2322      C2667   1.483       .  S
C2323      C2538   1.481       .  S
C2324      C2625   1.498       .  S
C2325      C2555   1.479       .  S
H2326      O2327   0.964       .  S
O2327     Zr2346   2.351       .  S
O2327     Zr2348   2.338       .  S
H2328      O2329   0.965       .  S
O2329     Zr2347   2.360       .  S
O2329     Zr2349   2.352       .  S
O2330     Zr2346   2.426       .  S
O2330      C2353   1.290       .  A
O2331     Zr2347   2.376       .  S
O2331      C2354   1.283       .  A
O2332     Zr2348   2.450       .  S
O2332      C2355   1.295       .  A
O2333     Zr2349   2.397       .  S
O2333      C2356   1.285       .  A
O2334     Zr2349   2.394       .  S
O2334      C2357   1.286       .  A
O2335     Zr2348   2.374       .  S
O2335      C2358   1.273       .  A
O2336     Zr2350   2.417       .  S
O2336      C2359   1.288       .  A
O2337     Zr2350   2.395       .  S
O2337      C2360   1.285       .  A
O2338     Zr2348   2.501       .  S
O2338      C2359   1.303       .  A
O2339     Zr2349   2.490       .  S
O2339      C2360   1.300       .  A
O2340     Zr2346   2.405       .  S
O2340      C2355   1.288       .  A
O2341     Zr2347   2.574       .  S
O2341      C2358   1.313       .  A
O2342     Zr2347   2.478       .  S
O2342      C2357   1.301       .  A
O2343     Zr2346   2.498       .  S
O2343      C2356   1.302       .  A
O2344     Zr2350   2.463       .  S
O2344      C2353   1.297       .  A
O2345     Zr2350   2.490       .  S
O2345      C2354   1.302       .  A
Zr2346     O2352   2.362       .  S
Zr2346     O2364   2.322       .  S
Zr2347     O2351   2.356       .  S
Zr2347     O2362   2.317       .  S
Zr2348     O2352   2.343       .  S
Zr2348     O2362   2.342       .  S
Zr2349     O2351   2.344       .  S
Zr2349     O2364   2.333       .  S
Zr2350     O2351   2.324       .  S
Zr2350     O2352   2.340       .  S
Zr2350     O2364   2.343       .  S
Zr2350     O2362   2.326       .  S
C2353      C2566   1.476       .  S
C2354      C2597   1.479       .  S
C2355      C2580   1.481       .  S
C2356      C2513   1.487       .  S
C2357      C2611   1.466       .  S
C2358      C2650   1.529       .  S
C2359      C2636   1.493       .  S
C2360      C2524   1.474       .  S
H2361      O2362   0.961       .  S
H2363      O2364   0.965       .  S
C2365      C2835   1.513   1_554  S
C2365      C2366   1.423       .  A
C2365      C2370   1.418       .  A
C2366      C2367   1.414       .  A
C2366      H2371   1.083       .  S
C2367      C2368   1.391       .  A
C2368      C2369   1.395       .  A
C2369      C2499   1.483       .  S
C2369      C2370   1.409       .  A
C2370      H2373   1.082   1_554  S
C2374      C2496   1.487       .  S
C2375      C2440   1.500       .  S
C2376      C2454   1.477       .  S
C2376      C2377   1.423   1_545  A
C2377      C2471   1.498       .  S
C2378      C2482   1.497   1_556  S
C2378      C2379   1.403       .  A
C2379      C2429   1.471       .  S
C2380      C2583   1.471   1_556  S
C2380      C2381   1.396       .  A
C2380      C2385   1.399       .  A
C2381      H2386   1.085       .  S
C2382      C2891   1.460       .  S
C2382      C2383   1.398       .  A
C2383      H2387   1.084       .  S
C2384      C2457   1.470   1_565  S
C2384      C2385   1.405       .  A
C2385      H2388   1.084   1_556  S
C2389      C2541   1.462       .  S
C2389      C2390   1.400       .  A
C2390      H2395   1.078       .  S
C2391      C2468   1.510   1_655  S
C2391      C2392   1.418       .  A
C2392      C2393   1.403       .  A
C2392      H2396   1.080       .  S
C2393      C2821   1.465       .  S
C2393      C2394   1.387       .  A
C2394      H2397   1.086       .  S
C2398      C2510   1.502       .  S
C2398      C2399   1.409       .  A
C2398      C2403   1.414       .  A
C2399      C2400   1.404       .  A
C2399      H2404   1.083       .  S
C2400      C2765   1.488       .  S
C2400      C2401   1.403       .  A
C2401      C2402   1.407       .  A
C2401      H2405   1.084       .  S
C2402      C2443   1.498       .  S
C2402      C2403   1.413       .  A
C2403      H2406   1.083       .  S
C2407      C2408   1.414       .  A
C2407      C2412   1.397       .  A
C2408      C2409   1.412       .  A
C2408      H2413   1.083       .  S
C2409      C2569   1.479       .  S
C2409      C2410   1.398       .  A
C2410      C2411   1.395       .  A
C2410      H2414   1.085       .  S
C2411      C2426   1.471       .  S
C2411      C2412   1.397       .  A
C2416      C2779   1.485   1_554  S
C2416      C2417   1.408       .  A
C2416      C2421   1.402       .  A
C2417      C2418   1.403       .  A
C2417      H2422   1.083       .  S
C2418      C2527   1.484       .  S
C2418      C2419   1.410       .  A
C2419      C2420   1.402       .  A
C2419      H2423   1.084       .  S
C2420      C2485   1.477       .  S
C2420      C2421   1.397       .  A
C2421      H2424   1.085   1_554  S
C2425      C2426   1.407       .  A
C2425      C2430   1.401   1_556  A
C2425      H2432   1.083   1_556  S
C2426      C2427   1.408       .  A
C2427      C2428   1.394       .  A
C2427      N2434   1.438       .  S
C2428      C2429   1.400       .  A
C2428      H2433   1.084       .  S
C2429      C2430   1.405   1_556  A
C2430      N2431   1.437       .  S
N2431      H2435   1.045       .  S
N2431      H2436   1.043       .  S
N2434      H2437   1.046       .  S
N2434      H2438   1.046       .  S
C2439      C2440   1.403       .  A
C2439      C2444   1.403       .  A
C2439      H2446   1.084       .  S
C2440      C2441   1.419   1_556  A
C2441      C2442   1.407   1_554  A
C2441      N2448   1.437       .  S
C2442      C2443   1.406       .  A
C2442      H2447   1.084   1_556  S
C2443      C2444   1.421       .  A
C2444      N2445   1.437       .  S
N2445      H2449   1.045       .  S
N2445      H2450   1.043       .  S
N2448      H2451   1.041       .  S
N2448      H2452   1.045       .  S
C2453      C2454   1.402   1_565  A
C2453      C2458   1.399       .  A
C2453      H2460   1.084       .  S
C2454      C2455   1.414   1_556  A
C2455      C2456   1.394       .  A
C2455      N2462   1.437       .  S
C2456      C2457   1.401   1_554  A
C2456      H2461   1.085       .  S
C2457      C2458   1.416   1_545  A
C2458      N2459   1.439       .  S
N2459      H2463   1.046       .  S
N2459      H2464   1.042       .  S
N2462      H2465   1.041       .  S
N2462      H2466   1.045       .  S
C2467      C2468   1.411   1_655  A
C2467      C2472   1.402       .  A
C2467      H2474   1.079       .  S
C2469      C2470   1.401       .  A
C2469      N2476   1.436       .  S
C2470      C2471   1.400   1_554  A
C2470      H2475   1.081       .  S
C2472      N2473   1.437       .  S
N2473      H2477   1.046       .  S
N2473      H2478   1.045       .  S
N2476      H2479   1.044       .  S
N2476      H2480   1.045       .  S
C2481      C2482   1.403   1_556  A
C2481      C2486   1.400       .  A
C2481      H2488   1.081       .  S
C2482      C2483   1.414       .  A
C2483      C2484   1.410       .  A
C2483      N2490   1.438       .  S
C2484      C2485   1.401       .  A
C2484      H2489   1.083       .  S
C2485      C2486   1.409   1_554  A
C2486      N2487   1.438       .  S
N2487      H2491   1.046       .  S
N2487      H2492   1.046       .  S
N2490      H2493   1.044       .  S
N2490      H2494   1.046       .  S
C2495      H2502   1.083       .  S
C2496      C2497   1.413       .  A
C2497      C2498   1.412       .  A
C2497      N2504   1.436       .  S
C2498      C2499   1.405   1_556  A
C2498      H2503   1.083       .  S
C2499      C2500   1.412       .  A
N2501      H2505   1.046       .  S
N2501      H2506   1.045       .  S
N2504      H2507   1.042   1_655  S
N2504      H2508   1.045       .  S
C2509      C2510   1.410       .  A
C2509      C2514   1.412       .  A
C2509      H2516   1.084       .  S
C2510      C2511   1.416       .  A
C2511      C2512   1.405   1_556  A
C2511      N2518   1.439       .  S
C2512      C2513   1.405       .  A
C2512      H2517   1.085       .  S
C2513      C2514   1.417   1_554  A
C2514      N2515   1.436       .  S
N2515      H2519   1.046       .  S
N2515      H2520   1.043       .  S
N2518      H2521   1.046   1_556  S
N2518      H2522   1.046   1_556  S
C2523      C2524   1.405       .  A
C2523      C2528   1.399       .  A
C2523      H2530   1.085       .  S
C2524      C2525   1.408       .  A
C2525      C2526   1.415       .  A
C2525      N2532   1.437       .  S
C2526      C2527   1.409       .  A
C2526      H2531   1.083       .  S
C2527      C2528   1.408       .  A
C2528      N2529   1.439       .  S
N2529      H2533   1.045       .  S
N2529      H2534   1.046   1_554  S
N2532      H2535   1.045       .  S
N2532      H2536   1.046       .  S
C2537      C2538   1.411       .  A
C2537      C2542   1.400       .  A
C2537      H2544   1.084       .  S
C2538      C2539   1.416       .  A
C2539      C2540   1.394       .  A
C2539      N2546   1.436       .  S
C2540      C2541   1.397       .  A
C2540      H2545   1.085       .  S
C2541      C2542   1.410       .  A
C2542      N2543   1.438       .  S
N2543      H2547   1.045       .  S
N2546      H2549   1.042       .  S
N2546      H2550   1.046       .  S
C2551      C2552   1.400       .  A
C2551      C2556   1.405       .  A
C2551      H2558   1.084       .  S
C2552      C2553   1.422       .  A
C2553      C2554   1.413       .  A
C2553      N2560   1.438       .  S
C2554      C2555   1.399       .  A
C2554      H2559   1.083       .  S
C2555      C2556   1.414       .  A
C2556      N2557   1.437       .  S
N2557      H2561   1.046       .  S
N2557      H2562   1.044       .  S
N2560      H2564   1.046       .  S
C2565      C2566   1.403       .  A
C2565      C2570   1.399       .  A
C2565      H2572   1.084       .  S
C2566      C2567   1.419   1_554  A
C2567      C2568   1.406       .  A
C2567      N2574   1.440       .  S
C2568      C2569   1.404       .  A
C2568      H2573   1.084       .  S
C2569      C2570   1.411   1_556  A
C2570      N2571   1.433       .  S
N2571      H2575   1.045   1_554  S
N2571      H2576   1.045       .  S
N2574      H2577   1.043   1_556  S
N2574      H2578   1.045       .  S
C2579      C2580   1.409       .  A
C2579      C2584   1.391       .  A
C2579      H2586   1.084       .  S
C2580      C2581   1.412       .  A
C2581      C2582   1.406       .  A
C2581      N2588   1.432       .  S
C2582      C2583   1.404       .  A
C2582      H2587   1.084       .  S
C2583      C2584   1.403       .  A
C2584      N2585   1.434   1_554  S
N2585      H2589   1.046       .  S
N2585      H2590   1.046       .  S
N2588      H2591   1.046       .  S
N2588      H2592   1.046       .  S
C2593      C2594   1.404       .  A
C2593      C2598   1.404       .  A
C2593      H2600   1.084       .  S
C2594      C2595   1.409       .  A
C2595      C2596   1.394       .  A
C2595      N2602   1.440       .  S
C2596      C2597   1.409       .  A
C2596      H2601   1.085       .  S
C2597      C2598   1.418       .  A
C2598      N2599   1.438       .  S
N2599      H2603   1.045       .  S
N2599      H2604   1.041       .  S
N2602      H2605   1.043       .  S
N2602      H2606   1.046       .  S
C2607      C2608   1.409       .  A
C2607      C2612   1.396       .  A
C2607      H2614   1.084       .  S
C2608      C2609   1.414       .  A
C2609      C2610   1.399       .  A
C2609      N2616   1.437       .  S
C2610      C2611   1.406       .  A
C2610      H2615   1.085       .  S
C2611      C2612   1.411       .  A
C2612      N2613   1.439       .  S
N2613      H2617   1.046       .  S
N2613      H2618   1.042       .  S
N2616      H2619   1.043       .  S
N2616      H2620   1.045       .  S
C2621      C2622   1.420       .  A
C2621      C2626   1.413       .  A
C2621      H2628   1.081       .  S
C2622      C2623   1.408       .  A
C2623      C2624   1.397       .  A
C2623      N2630   1.433       .  S
C2624      C2625   1.415       .  A
C2624      H2629   1.083       .  S
C2625      C2626   1.406       .  A
C2626      N2627   1.435       .  S
N2627      H2631   1.045       .  S
N2627      H2632   1.046       .  S
N2630      H2633   1.046       .  S
N2630      H2634   1.046       .  S
C2635      C2636   1.405       .  A
C2635      C2640   1.418       .  A
C2635      H2642   1.083       .  S
C2636      C2637   1.420       .  A
C2637      C2638   1.381       .  A
C2637      N2644   1.423       .  S
C2638      C2639   1.390       .  A
C2638      H2643   1.085       .  S
C2639      C2640   1.427       .  A
N2641      H2645   1.046       .  S
N2641      H2646   1.043       .  S
N2644      H2647   1.042       .  S
N2644      H2648   1.042       .  S
C2649      C2650   1.420       .  A
C2649      C2654   1.399       .  A
C2649      H2656   1.083       .  S
C2650      C2651   1.425       .  A
C2651      C2652   1.429       .  A
C2651      N2658   1.435       .  S
C2652      C2653   1.417       .  A
C2652      H2657   1.083       .  S
C2653      C2654   1.410       .  A
C2654      N2655   1.442       .  S
N2655      H2659   1.046       .  S
N2655      H2660   1.041       .  S
N2658      H2661   1.041       .  S
N2658      H2662   1.045       .  S
C2663      C2664   1.387       .  A
C2663      C2668   1.394       .  A
C2663      H2670   1.084       .  S
C2664      C2665   1.409       .  A
C2665      C2666   1.402       .  A
C2665      N2672   1.437       .  S
C2666      C2667   1.403       .  A
C2666      H2671   1.083       .  S
C2667      C2668   1.430       .  A
C2668      N2669   1.440       .  S
N2669      H2673   1.046       .  S
N2669      H2674   1.046       .  S
N2672      H2675   1.046       .  S
N2672      H2676   1.046       .  S
C2677      C2678   1.405       .  A
C2677      C2682   1.398       .  A
C2677      H2684   1.085       .  S
C2678      C2679   1.417       .  A
C2679      C2680   1.405       .  A
C2679      N2686   1.438       .  S
C2680      C2681   1.407       .  A
C2680      H2685   1.084       .  S
C2681      C2682   1.416       .  A
C2682      N2683   1.438       .  S
N2683      H2687   1.045       .  S
N2683      H2688   1.042       .  S
N2686      H2689   1.042       .  S
N2686      H2690   1.046       .  S
C2691      C2692   1.395       .  A
C2691      C2696   1.390       .  A
C2691      H2698   1.085       .  S
C2692      C2693   1.406       .  A
C2693      C2694   1.408       .  A
C2693      N2700   1.437       .  S
C2694      C2695   1.408       .  A
C2695      C2696   1.423       .  A
C2696      N2697   1.433       .  S
N2697      H2701   1.045       .  S
N2697      H2702   1.036       .  S
N2700      H2703   1.045       .  S
C2705      C2706   1.416       .  A
C2705      C2710   1.394       .  A
C2705      H2712   1.073       .  S
C2706      C2707   1.429       .  A
C2707      C2708   1.421       .  A
C2707      N2714   1.435       .  S
C2708      C2709   1.411       .  A
C2708      H2713   1.080       .  S
C2709      C2710   1.403       .  A
C2710      N2711   1.427       .  S
N2711      H2715   1.045       .  S
N2711      H2716   1.046       .  S
N2714      H2717   1.046       .  S
N2714      H2718   1.046       .  S
C2719      C2720   1.399       .  A
C2719      C2724   1.406       .  A
C2719      H2726   1.084       .  S
C2721      N2728   1.439   1_545  S
C2722      C2723   1.411       .  A
C2723      C2724   1.433       .  A
C2724      N2725   1.433       .  S
N2725      H2729   1.045       .  S
N2725      H2730   1.044       .  S
N2728      H2731   1.041   1_565  S
N2728      H2732   1.045       .  S
C2733      C2734   1.408       .  A
C2733      C2738   1.413       .  A
C2733      H2740   1.084       .  S
C2735      C2736   1.398       .  A
C2735      N2742   1.440       .  S
C2736      H2741   1.079       .  S
C2737      C2738   1.419       .  A
C2738      N2739   1.437       .  S
N2739      H2743   1.046       .  S
N2739      H2744   1.043       .  S
N2742      H2745   1.043       .  S
N2742      H2746   1.046       .  S
C2747      C2748   1.407       .  A
C2747      C2752   1.396       .  A
C2747      H2754   1.083       .  S
C2749      C2750   1.391       .  A
C2749      N2756   1.433       .  S
C2750      H2755   1.084       .  S
C2751      C2752   1.406       .  A
C2752      N2753   1.439       .  S
N2753      H2757   1.045       .  S
N2753      H2758   1.042   1_655  S
N2756      H2759   1.046       .  S
N2756      H2760   1.046       .  S
C2761      C2762   1.407       .  A
C2761      C2766   1.403       .  A
C2761      H2768   1.084       .  S
C2762      C2763   1.415       .  A
C2763      C2764   1.409       .  A
C2763      N2770   1.438       .  S
C2764      C2765   1.405       .  A
C2764      H2769   1.084       .  S
C2765      C2766   1.417       .  A
C2766      N2767   1.438       .  S
N2767      H2771   1.045       .  S
N2767      H2772   1.043       .  S
N2770      H2773   1.046       .  S
N2770      H2774   1.046       .  S
C2775      C2776   1.412       .  A
C2775      C2780   1.403       .  A
C2775      H2782   1.083       .  S
C2776      C2777   1.415       .  A
C2777      C2778   1.402       .  A
C2777      N2784   1.438       .  S
C2778      C2779   1.406       .  A
C2778      H2783   1.083       .  S
C2779      C2780   1.407       .  A
C2780      N2781   1.438   1_556  S
N2781      H2785   1.046       .  S
N2781      H2786   1.046       .  S
N2784      H2787   1.046       .  S
N2784      H2788   1.046       .  S
C2789      C2790   1.402       .  A
C2789      C2794   1.389       .  A
C2789      H2796   1.084       .  S
C2790      C2791   1.419       .  A
C2791      C2792   1.400       .  A
C2791      N2798   1.438       .  S
C2792      C2793   1.395       .  A
C2793      C2794   1.414       .  A
C2794      N2795   1.442       .  S
N2795      H2799   1.045       .  S
N2795      H2800   1.042       .  S
N2798      H2801   1.046       .  S
N2798      H2802   1.046       .  S
C2803      C2804   1.403       .  A
C2803      C2808   1.408       .  A
C2803      H2810   1.084       .  S
C2804      C2805   1.406       .  A
C2805      C2806   1.407       .  A
C2805      N2812   1.438       .  S
C2806      C2807   1.412       .  A
C2806      H2811   1.083       .  S
C2807      C2808   1.415       .  A
C2808      N2809   1.436       .  S
N2809      H2813   1.046       .  S
N2809      H2814   1.045       .  S
N2812      H2815   1.046       .  S
N2812      H2816   1.046       .  S
C2817      C2818   1.400       .  A
C2817      C2822   1.389       .  A
C2817      H2824   1.085       .  S
C2818      C2819   1.409       .  A
C2819      C2820   1.400       .  A
C2819      N2826   1.430       .  S
C2820      C2821   1.403       .  A
C2820      H2825   1.084       .  S
C2821      C2822   1.410       .  A
C2822      N2823   1.434       .  S
N2823      H2827   1.045       .  S
N2823      H2828   1.044       .  S
N2826      H2829   1.043       .  S
N2826      H2830   1.046       .  S
C2831      C2832   1.407       .  A
C2831      C2836   1.423       .  A
C2831      H2838   1.084       .  S
C2832      C2833   1.411       .  A
C2833      C2834   1.405       .  A
C2833      N2840   1.429       .  S
C2834      C2835   1.404       .  A
C2834      H2839   1.083       .  S
C2835      C2836   1.423       .  A
C2836      N2837   1.437   1_556  S
N2837      H2841   1.046   1_554  S
N2837      H2842   1.045       .  S
N2840      H2843   1.046       .  S
N2840      H2844   1.046       .  S
C2845      C2846   1.398       .  A
C2845      C2850   1.401       .  A
C2845      H2852   1.084       .  S
C2846      C2847   1.422       .  A
C2847      C2848   1.414       .  A
C2847      N2854   1.438       .  S
C2848      C2849   1.404       .  A
C2848      H2853   1.084       .  S
C2849      C2850   1.422       .  A
C2850      N2851   1.440       .  S
N2851      H2855   1.045       .  S
N2851      H2856   1.042       .  S
N2854      H2857   1.043       .  S
N2854      H2858   1.046       .  S
C2859      C2860   1.402       .  A
C2859      C2864   1.395       .  A
C2859      H2866   1.084       .  S
C2860      C2861   1.419       .  A
C2861      C2862   1.408       .  A
C2861      N2868   1.437       .  S
C2862      C2863   1.404       .  A
C2862      H2867   1.084       .  S
C2863      C2864   1.408       .  A
C2864      N2865   1.431       .  S
N2865      H2869   1.046       .  S
N2865      H2870   1.046       .  S
N2868      H2871   1.043       .  S
N2868      H2872   1.045       .  S
C2873      C2874   1.413       .  A
C2873      C2878   1.402       .  A
C2873      H2880   1.084       .  S
C2874      C2875   1.415       .  A
C2875      C2876   1.408       .  A
C2875      N2882   1.438       .  S
C2876      C2877   1.408       .  A
C2876      H2881   1.084       .  S
C2877      C2878   1.403       .  A
C2878      N2879   1.432       .  S
N2879      H2883   1.046       .  S
N2882      H2885   1.045       .  S
N2882      H2886   1.046       .  S
C2887      C2888   1.408       .  A
C2887      C2892   1.398       .  A
C2887      H2894   1.083       .  S
C2888      C2889   1.418       .  A
C2889      C2890   1.397       .  A
C2889      N2896   1.439       .  S
C2890      C2891   1.396       .  A
C2890      H2895   1.085       .  S
C2891      C2892   1.411       .  A
C2892      N2893   1.439       .  S
N2893      H2897   1.046       .  S
N2896      H2899   1.046       .  S
N2896      H2900   1.046       .  S
C2901      C2902   1.406       .  A
C2901      C2906   1.409       .  A
C2901      H2908   1.084       .  S
C2902      C2903   1.409       .  A
C2903      C2904   1.411       .  A
C2903      N2910   1.438       .  S
C2904      C2905   1.408       .  A
C2904      H2909   1.084       .  S
C2905      C2906   1.409       .  A
C2906      N2907   1.438       .  S
N2907      H2911   1.046       .  S
N2907      H2912   1.045       .  S
N2910      H2913   1.045       .  S
N2910      H2914   1.046       .  S
C2915      C2916   1.397       .  A
C2915      C2920   1.395       .  A
C2915      H2922   1.083       .  S
C2916      C2917   1.418       .  A
C2917      C2918   1.409       .  A
C2917      N2924   1.432       .  S
C2918      C2919   1.400       .  A
C2918      H2923   1.084       .  S
C2919      C2920   1.411       .  A
C2920      N2921   1.435       .  S
N2921      H2925   1.044       .  S
N2921      H2926   1.046       .  S
N2924      H2927   1.046       .  S
N2924      H2928   1.046       .  S
