geometry optimzed in LAMMPS
_audit_creation_date              2020-11-30 
_audit_creation_method            'lammps2cif' 
_symmetry_space_group_name_H-M    'P1' 
_symmetry_Int_Tables_number       1 
_symmetry_cell_setting            triclinic 
loop_ 
_symmetry_equiv_pos_as_xyz 
  x,y,z 
_cell_length_a                    51.44285152 
_cell_length_b                    51.408713319966274 
_cell_length_c                    47.85178647833634 
_cell_angle_alpha                 89.93372265760696 
_cell_angle_beta                  89.68644798979368 
_cell_angle_gamma                 120.37678286407883 
loop_ 
_atom_site_label 
_atom_site_type_symbol 
_atom_site_fract_x 
_atom_site_fract_y 
_atom_site_fract_z 
_atom_site_charge 
Fe1        Fe  0.20523831  0.36893756  0.99102563     1.65800
Fe2        Fe  0.13000662  0.33568528  0.49286266     1.73200
Fe3        Fe  0.16360745  0.29342090  0.49052811     1.54400
O4          O  0.19936770  0.30672415  0.46364329    -0.81800
O5          O  0.11137853  0.30764161  0.03098481    -0.80100
O6          O  0.22137854  0.35638861  0.45773591    -0.84300
O7          O  0.22462977  0.35378117  0.01972930    -0.79200
O8          O  0.13552323  0.28081889  0.45629415    -0.80900
O9          O  0.14724986  0.37173406  0.02083002    -0.83700
C10         C  0.21695543  0.33041199  0.03462208     0.97100
C11         C  0.21877748  0.33107653  0.45201966     1.04500
O12         O  0.16686587  0.33315199  0.49203399    -1.12700
O13         O  0.14396255  0.36416095  0.45865589    -0.75100
O14         O  0.19353249  0.39300148  0.46486043    -0.78600
O15         O  0.19218023  0.30596487  0.03109855    -0.79300
C16         C  0.16922012  0.38737617  0.45287860     0.96000
O17         O  0.19689266  0.39058202  0.02338671    -0.77200
O18         O  0.10622142  0.29985155  0.46607704    -0.82400
C19         C  0.11043810  0.28315356  0.03687185     0.98600
C20         C  0.11231806  0.28284261  0.45177236     1.04500
O21         O  0.12728673  0.27512617  0.02486353    -0.78100
C22         C  0.17308995  0.39085223  0.03005063     1.02800
Fe23       Fe  0.36720770  0.16351067  0.51062072     1.65800
Fe24       Fe  0.29255752  0.12844605  0.00433778     1.73200
Fe25       Fe  0.33443907  0.20558260  0.00532468     1.61200
O26         O  0.37005551  0.22500656  0.03312226    -0.81800
O27         O  0.27469411  0.14062430  0.47855667    -0.80100
O28         O  0.38908904  0.19493514  0.03717011    -0.84300
O29         O  0.39032811  0.20044369  0.48439745    -0.79200
O30         O  0.30559422  0.19370640  0.03907095    -0.80900
O31         O  0.30445289  0.10551710  0.48406525    -0.83700
C32         C  0.38450897  0.21844132  0.47144988     0.97100
C33         C  0.38835549  0.21834995  0.04412264     1.04500
O34         O  0.33220195  0.16608439  0.00489619    -1.12700
O35         O  0.30331156  0.10880208  0.03669228    -0.75100
O36         O  0.35322108  0.13037769  0.03466341    -0.78600
O37         O  0.36051283  0.21911426  0.47594375    -0.79300
C38         C  0.32782421  0.11132225  0.04514928     0.96000
O39         O  0.35366869  0.13592759  0.47619949    -0.77200
O40         O  0.27455842  0.14427986  0.03413239    -0.82400
C41         C  0.27701778  0.16573449  0.47231423     0.98600
C42         C  0.28253028  0.16908151  0.04647803     1.04500
O43         O  0.29611767  0.19023336  0.48381491    -0.78100
C44         C  0.32876059  0.11222078  0.47106806     1.02800
C45         C  0.47705554  0.50215006  0.14317442     0.02200
C46         C  0.47343380  0.47310264  0.14133429     0.02200
C47         C  0.49894309  0.46970505  0.14056774     0.02200
C48         C  0.02810438  0.49252873  0.14304818     0.02200
C49         C  0.03201265  0.02694536  0.13697973     0.02200
C50         C  0.00652780  0.03030253  0.13664026     0.02200
C51         C  0.31431020  0.47992799  0.15559917     0.80100
N52         N  0.31257452  0.00962519  0.14040919    -0.78200
C53         C  0.33619988  0.03103968  0.12510688     0.82500
N54         N  0.36277335  0.03128131  0.12487560    -0.78200
C55         C  0.36487100  0.50191585  0.14076556     0.82600
N56         N  0.34112087  0.48070633  0.15572589    -0.79900
C57         C  0.18928468  0.02136202  0.13266903     0.80100
N58         N  0.16098903  0.01598683  0.13684517    -0.78200
C59         C  0.13859545  0.49124148  0.12627326     0.82500
N60         N  0.14345939  0.47336070  0.10891459    -0.78200
C61         C  0.17185495  0.47851297  0.10452575     0.82600
N62         N  0.19571896  0.50231225  0.11727495    -0.79900
C63         C  0.19658681  0.16812103  0.12535810     0.80100
N64         N  0.17062570  0.14106634  0.12659237    -0.78200
C65         C  0.14632378  0.13781102  0.14075756     0.82500
N66         N  0.14772428  0.16203121  0.15341525    -0.78200
C67         C  0.17329979  0.18941991  0.15213500     0.82600
N68         N  0.19787197  0.19234406  0.13830519    -0.79900
C69         C  0.48635538  0.16934297  0.14699628     0.80100
N70         N  0.50585124  0.19291617  0.13034686    -0.78200
C71         C  0.02811356  0.19242266  0.11444892     0.82500
N72         N  0.03387812  0.16963233  0.11842470    -0.78200
C73         C  0.51306761  0.14433796  0.13643390     0.82600
N74         N  0.49048804  0.14546141  0.14980796    -0.79900
C75         C  0.30792872  0.33858287  0.11179121     0.80100
N76         N  0.33297409  0.36569917  0.11700595    -0.78200
C77         C  0.35511606  0.36754271  0.13359323     0.82500
N78         N  0.35247000  0.34207866  0.14443322    -0.78200
C79         C  0.32821750  0.31471628  0.13905317     0.82600
N80         N  0.30557613  0.31297789  0.12295114    -0.79900
C81         C  0.02201540  0.32660169  0.14488930     0.80100
N82         N  0.02015400  0.35201571  0.14677247    -0.78200
C83         C  0.50110820  0.35923272  0.13090216     0.82500
N84         N  0.48057798  0.33532214  0.11605286    -0.78200
C85         C  0.48103526  0.30915522  0.11541133     0.82600
N86         N  0.50258958  0.30704533  0.13015936    -0.79900
Fe87       Fe  0.33228736  0.13013882  0.24241893     1.65800
Fe88       Fe  0.29091118  0.16505838  0.24277975     1.73200
Fe89       Fe  0.36721147  0.20670297  0.23949637     1.54400
O90         O  0.38540554  0.19757166  0.27416388    -0.81800
O91         O  0.30405931  0.20067396  0.21513495    -0.80100
O92         O  0.36736129  0.14806093  0.27059205    -0.84300
O93         O  0.36226959  0.14327282  0.20957907    -0.79200
O94         O  0.35028680  0.22730808  0.26488309    -0.80900
O95         O  0.27628894  0.13640430  0.20916600    -0.83700
C96         C  0.38548466  0.16822883  0.20345467     0.97100
C97         C  0.38530237  0.17363286  0.28130127     1.04500
O98         O  0.33015652  0.16720004  0.24181665    -1.12700
O99         O  0.27112998  0.12889697  0.27044338    -0.75100
O100        O  0.30248105  0.11147126  0.27545902    -0.78600
O101        O  0.39031661  0.19299684  0.21363365    -0.79300
C102        C  0.27822511  0.11093476  0.28160136     0.96000
O103        O  0.29796022  0.10847802  0.21378132    -0.77200
O104        O  0.30267516  0.19422443  0.27622717    -0.82400
C105        C  0.32734180  0.21767481  0.20064590     0.98600
C106        C  0.32624926  0.21998435  0.27845540     1.04500
O107        O  0.35225861  0.21866370  0.20451805    -0.78100
C108        C  0.27961053  0.11449389  0.20184102     1.02800
Fe109      Fe  0.12749802  0.29138943  0.25824307     1.65800
Fe110      Fe  0.20408513  0.33295713  0.26283005     1.73200
Fe111      Fe  0.16293284  0.36827961  0.25926658     1.54400
O112        O  0.12975719  0.35252741  0.22887145    -0.81800
O113        O  0.21756090  0.36224516  0.29586596    -0.80100
O114        O  0.11113716  0.30316391  0.22421711    -0.84300
O115        O  0.10409780  0.30370707  0.28543420    -0.79200
O116        O  0.19495042  0.38728638  0.22792692    -0.80900
O117        O  0.18915820  0.29814431  0.29133487    -0.83700
C118        C  0.10817027  0.32780162  0.29676318     0.97100
C119        C  0.11242486  0.32755247  0.21699743     1.04500
O120        O  0.16484193  0.33089534  0.25999375    -1.12700
O121        O  0.19542472  0.30381733  0.23003567    -0.75100
O122        O  0.14570257  0.27342010  0.23084490    -0.78600
O123        O  0.13079352  0.35339627  0.29070580    -0.79300
C124        C  0.17174589  0.28060553  0.22162727     0.96000
O125        O  0.13926780  0.27511142  0.29220777    -0.77200
O126        O  0.22484660  0.36828475  0.23497950    -0.82400
C127        C  0.21490863  0.38486753  0.30161416     0.98600
C128        C  0.21879817  0.38649074  0.22281333     1.04500
O129        O  0.19610051  0.38990777  0.28924171    -0.78100
C130        C  0.16385060  0.27837764  0.30124058     1.02800
C131        C  0.47283882  0.00436243  0.35871738     0.02200
C132        C  0.47330524  0.47530427  0.36829151     0.02200
C133        C  0.99381384  0.46939677  0.35161191     0.02200
C134        C  0.02494274  0.99859554  0.35676838     0.02200
C135        C  0.02851035  0.02783323  0.35670185     0.02200
C136        C  0.00290725  0.03143794  0.35638026     0.02200
C137        C  0.18563582  0.01773210  0.35184707     0.80100
N138        N  0.15821983  0.01537025  0.35113771    -0.78200
C139        C  0.13395565  0.99210013  0.36376438     0.82500
N140        N  0.13784125  0.47255636  0.37846928    -0.78200
C141        C  0.16585879  0.47649623  0.38167471     0.82600
N142        N  0.18865659  0.99595898  0.36506045    -0.79900
C143        C  0.31259425  0.48241344  0.36228142     0.80100
N144        N  0.34039857  0.48590137  0.35949096    -0.78200
C145        C  0.36404161  0.00956820  0.37477844     0.82500
N146        N  0.36162716  0.02961404  0.39148252    -0.78200
C147        C  0.33402065  0.02594210  0.39733176     0.82600
N148        N  0.30881246  0.00193810  0.38667344    -0.79900
C149        C  0.47950346  0.17151055  0.34532867     0.80100
N150        N  0.50119954  0.19594621  0.35915532    -0.78200
C151        C  0.02481263  0.19555998  0.37643419     0.82500
N152        N  0.02734269  0.17062566  0.37400931    -0.78200
C153        C  0.50453258  0.14482997  0.35604955     0.82600
N154        N  0.48153376  0.14616260  0.34369778    -0.79900
C155        C  0.18710487  0.16679193  0.40075278     0.80100
N156        N  0.16281286  0.13919294  0.39565007    -0.78200
C157        C  0.13973964  0.13652006  0.38010259     0.82500
N158        N  0.14110911  0.16151463  0.36954280    -0.78200
C159        C  0.16498103  0.18929697  0.37419771     0.82600
N160        N  0.18824167  0.19193247  0.38986566    -0.79900
C161        C  0.01445583  0.32953551  0.36296306     0.80100
N162        N  0.01039278  0.35309115  0.35729631    -0.78200
C163        C  0.98735648  0.35493087  0.36902660     0.82500
N164        N  0.47574139  0.33694016  0.39851680    -0.78200
C165        C  0.47684894  0.31116633  0.40103653     0.82600
N166        N  0.99478968  0.30716814  0.38033612    -0.79900
C167        C  0.31145737  0.33127354  0.38445342     0.80100
N168        N  0.33789677  0.35773795  0.38478240    -0.78200
C169        C  0.36177934  0.36120414  0.36971225     0.82500
N170        N  0.35879830  0.33815663  0.35354602    -0.78200
C171        C  0.33240108  0.31132098  0.35327295     0.82600
N172        N  0.30870022  0.30795147  0.36885434    -0.79900
C173        C  0.00610407  0.06206913  0.35598631    -0.00300
C174        C  0.51463865  0.07920972  0.37838931    -0.12200
C175        C  0.51523895  0.10674617  0.37916578     0.02000
C176        C  0.50535523  0.11633707  0.35583187    -0.00400
C177        C  0.99602763  0.09935775  0.33521887    -0.12100
C178        C  0.99504546  0.07169365  0.33366744     0.01800
H179        H  0.52151094  0.07165882  0.39664972     0.14800
H180        H  0.98720606  0.10632014  0.31795795     0.14800
C181        C  0.98278717  0.05377448  0.30879824     0.36500
C182        C  0.52436229  0.12370626  0.40483989     0.36400
N183        N  0.97292156  0.03963186  0.28875672    -0.43900
N184        N  0.53155878  0.13727161  0.42543799    -0.43900
C185        C  0.05886997  0.05444872  0.36093162    -0.00300
C186        C  0.07314506  0.05710657  0.38657722    -0.12200
C187        C  0.10048433  0.08292162  0.39290488     0.02000
C188        C  0.11346504  0.10696474  0.37352596    -0.00400
C189        C  0.09971284  0.10374080  0.34748756    -0.12100
C190        C  0.07277498  0.07774065  0.34096490     0.01800
H191        H  0.06234130  0.03928448  0.40206909     0.14800
H192        H  0.10985287  0.12187919  0.33223024     0.14800
C193        C  0.05980697  0.07600848  0.31388602     0.36500
C194        C  0.11367302  0.08459924  0.41988236     0.36400
N195        N  0.04992201  0.07520096  0.29202745    -0.43900
N196        N  0.12419223  0.08571477  0.44148469    -0.43900
C197        C  0.39024950  0.39042704  0.36989096    -0.00300
C198        C  0.40512750  0.40257872  0.34442565    -0.12200
C199        C  0.43145611  0.43079005  0.34342239     0.02000
C200        C  0.44367618  0.44697090  0.36829198    -0.00400
C201        C  0.42882083  0.43502848  0.39376651    -0.12100
C202        C  0.40222273  0.40696951  0.39478065     0.01800
H203        H  0.39577318  0.39030761  0.32517783     0.14800
H204        H  0.43842095  0.44739516  0.41291829     0.14800
C205        C  0.38841362  0.39516297  0.42171556     0.36500
C206        C  0.44505501  0.44311611  0.31657423     0.36400
N207        N  0.37735650  0.38569694  0.44329976    -0.43900
N208        N  0.45562121  0.45313522  0.29497161    -0.43900
C209        C  0.39341214  0.01161021  0.36964111    -0.00300
C210        C  0.41256496  0.01660453  0.39231704    -0.12200
C211        C  0.43837465  0.01420285  0.38910075     0.02000
C212        C  0.44570815  0.00736876  0.36271771    -0.00400
C213        C  0.42960189  0.49941008  0.34519791    -0.12100
C214        C  0.40344335  0.50145447  0.34498430     0.01800
H215        H  0.40659637  0.02092507  0.41283121     0.14800
H216        H  0.43683466  0.49335465  0.32623348     0.14800
C217        C  0.38650534  0.49436105  0.31936775     0.36500
C218        C  0.45601058  0.01696304  0.41345796     0.36400
N219        N  0.37277326  0.48840773  0.29892233    -0.43900
N220        N  0.46999234  0.01878766  0.43298969    -0.43900
C221        C  0.10445348  0.99062582  0.36199953    -0.00300
C222        C  0.09736042  0.49882576  0.33436509    -0.12200
C223        C  0.07082002  0.49963632  0.33098450     0.02000
C224        C  0.05188878  0.99485268  0.35784677    -0.00400
C225        C  0.05766505  0.98335227  0.38221620    -0.12100
C226        C  0.08343262  0.98070902  0.38431347     0.01800
H227        H  0.11340969  0.50603347  0.31717647     0.14800
H228        H  0.04227243  0.97694864  0.39979707     0.14800
C229        C  0.08817152  0.96886571  0.40992467     0.36500
C230        C  0.06513629  0.50845101  0.30412798     0.36400
N231        N  0.09177042  0.95917280  0.43043100    -0.43900
N232        N  0.06072287  0.51497325  0.28225180    -0.43900
C233        C  0.98947422  0.43854283  0.35455040    -0.00300
C234        C  0.97854627  0.42330353  0.38009880    -0.12200
C235        C  0.97543922  0.39498243  0.38465458     0.02000
C236        C  0.98495560  0.38207983  0.36380394    -0.00400
C237        C  0.50226278  0.40209391  0.35283985    -0.12100
C238        C  0.50319124  0.42942484  0.34845365     0.01800
H239        H  0.97283150  0.43387747  0.39677204     0.14800
H240        H  0.50653605  0.39130171  0.33537897     0.14800
C241        C  0.50938992  0.44188663  0.32058488     0.36500
C242        C  0.96334613  0.38035542  0.41122023     0.36400
N243        N  0.51423385  0.45118538  0.29795660    -0.43900
N244        N  0.95328984  0.36850236  0.43239426    -0.43900
C245        C  0.16523381  0.21532310  0.36015684    -0.00300
C246        C  0.13766656  0.21076882  0.34981988    -0.12200
C247        C  0.13638846  0.23115642  0.33143677     0.02000
C248        C  0.16321951  0.25773196  0.32346649    -0.00400
C249        C  0.19052142  0.26359861  0.33571108    -0.12100
C250        C  0.19176281  0.24277372  0.35380248     0.01800
H251        H  0.11676606  0.19027174  0.35507456     0.14800
H252        H  0.21134269  0.28416055  0.33041114     0.14800
C253        C  0.22073306  0.24977270  0.36436713     0.36500
C254        C  0.10724833  0.22292885  0.32007394     0.36400
N255        N  0.24398985  0.25548882  0.37291997    -0.43900
N256        N  0.08381549  0.21618719  0.31113099    -0.43900
C257        C  0.03989938  0.32834352  0.34966574    -0.00300
C258        C  0.03511879  0.30096442  0.33887651    -0.12200
C259        C  0.05709444  0.29977563  0.32233822     0.02000
C260        C  0.08517148  0.32647671  0.31697659    -0.00400
C261        C  0.09051310  0.35344968  0.32969827    -0.12100
C262        C  0.06819293  0.35464824  0.34553887     0.01800
H263        H  0.01340767  0.28065940  0.34199789     0.14800
H264        H  0.11187653  0.37411837  0.32649384     0.14800
C265        C  0.07463574  0.38329799  0.35698663     0.36500
C266        C  0.04904657  0.27105086  0.31002543     0.36400
N267        N  0.07913916  0.40603136  0.36613667    -0.43900
N268        N  0.04213058  0.24793397  0.30010997    -0.43900
C269        C  0.23673333  0.40740467  0.32171923    -0.00300
C270        C  0.26276561  0.40616091  0.32788706    -0.12200
C271        C  0.28701156  0.42949066  0.34196012     0.02000
C272        C  0.28590249  0.45539930  0.35022961    -0.00400
C273        C  0.25884484  0.45552731  0.34627364    -0.12100
C274        C  0.23432873  0.43181035  0.33235337     0.01800
H275        H  0.26488771  0.38730888  0.32073702     0.14800
H276        H  0.25701740  0.47456794  0.35336524     0.14800
C277        C  0.20711217  0.43318023  0.32943589     0.36500
C278        C  0.31260120  0.42578897  0.34733144     0.36400
N279        N  0.18522999  0.43416645  0.32723462    -0.43900
N280        N  0.33305293  0.42274984  0.35153818    -0.43900
C281        C  0.40780224  0.17499091  0.30173379    -0.00300
C282        C  0.40292441  0.14773699  0.31342112    -0.12200
C283        C  0.42541314  0.14617197  0.32829916     0.02000
C284        C  0.45382152  0.17246761  0.33214800    -0.00400
C285        C  0.45799535  0.20016459  0.32241158    -0.12100
C286        C  0.43551312  0.20168513  0.30721249     0.01800
H287        H  0.38158053  0.12706573  0.31014719     0.14800
H288        H  0.47950505  0.22068237  0.32557661     0.14800
C289        C  0.44242437  0.23069156  0.29623837     0.36500
C290        C  0.41845624  0.11710653  0.33923290     0.36400
N291        N  0.44807438  0.25397652  0.28745221    -0.43900
N292        N  0.41282548  0.09376161  0.34784534    -0.43900
C293        C  0.25677759  0.08790708  0.30187864    -0.00300
C294        C  0.23697711  0.09390907  0.31714449    -0.12200
C295        C  0.21439822  0.07185533  0.33432843     0.02000
C296        C  0.21137201  0.04298514  0.33677171    -0.00400
C297        C  0.23186756  0.03734682  0.32246427    -0.12100
C298        C  0.25403291  0.05915962  0.30480032     0.01800
H299        H  0.23876306  0.11577052  0.31526812     0.14800
H300        H  0.22950322  0.01519992  0.32380594     0.14800
C301        C  0.27175612  0.05027278  0.28819614     0.36500
C302        C  0.19455242  0.07949726  0.34902791     0.36400
N303        N  0.28564572  0.04288170  0.27474440    -0.43900
N304        N  0.17840804  0.08540235  0.36061556    -0.43900
C305        C  0.32607195  0.24293873  0.29700119    -0.00300
C306        C  0.31199817  0.23446407  0.32330669    -0.12200
C307        C  0.31348460  0.25617330  0.34203834     0.02000
C308        C  0.32911706  0.28702732  0.33436357    -0.00400
C309        C  0.34224144  0.29525413  0.30766954    -0.12100
C310        C  0.34060859  0.27364948  0.28894754     0.01800
H311        H  0.30066114  0.21093001  0.32960806     0.14800
H312        H  0.35357954  0.31875441  0.30122448     0.14800
C313        C  0.35301683  0.28357373  0.26119491     0.36500
C314        C  0.30028411  0.24619754  0.36943923     0.36400
N315        N  0.36281147  0.29163058  0.23895737    -0.43900
N316        N  0.28960744  0.23772840  0.39132275    -0.43900
C317        C  0.09133459  0.32634435  0.19514775    -0.00300
C318        C  0.06264163  0.30034914  0.19354647    -0.12200
C319        C  0.04013330  0.29951606  0.17655475     0.02000
C320        C  0.04613965  0.32492349  0.16030869    -0.00400
C321        C  0.07530109  0.35035842  0.16071723    -0.12100
C322        C  0.09785716  0.35123087  0.17777516     0.01800
H323        H  0.05713600  0.28114819  0.20687735     0.14800
H324        H  0.08034761  0.36984622  0.14799562     0.14800
C325        C  0.12750294  0.37780937  0.17682524     0.36500
C326        C  0.01033062  0.27341211  0.17844829     0.36400
N327        N  0.15129543  0.39905066  0.17596587    -0.43900
N328        N  0.98639629  0.25259477  0.18042503    -0.43900
C329        C  0.32614410  0.23889480  0.18008545    -0.00300
C330        C  0.35352434  0.26316383  0.17040370    -0.12200
C331        C  0.35454192  0.28720023  0.15583862     0.02000
C332        C  0.32756570  0.28742292  0.15037994    -0.00400
C333        C  0.29994363  0.26191089  0.15766049    -0.12100
C334        C  0.29895293  0.23770839  0.17228880     0.01800
H335        H  0.37459941  0.26427701  0.17541171     0.14800
H336        H  0.27909028  0.26143059  0.15310126     0.14800
C337        C  0.26969431  0.21233267  0.17925941     0.36500
C338        C  0.38391882  0.31158675  0.14745037     0.36400
N339        N  0.24622294  0.19199713  0.18477357    -0.43900
N340        N  0.40748596  0.33121131  0.14103225    -0.43900
C341        C  0.45966658  0.16844870  0.16078522    -0.00300
C342        C  0.45298292  0.19136575  0.15505002    -0.12200
C343        C  0.42800049  0.19113458  0.16744016     0.02000
C344        C  0.40926048  0.16783227  0.18619764    -0.00400
C345        C  0.41517181  0.14452631  0.19118341    -0.12100
C346        C  0.43979902  0.14446268  0.17895132     0.01800
H347        H  0.46714681  0.20950340  0.14070685     0.14800
H348        H  0.40085397  0.12647256  0.20559224     0.14800
C349        C  0.44306185  0.11880477  0.18556241     0.36500
C350        C  0.42135476  0.21432592  0.15980845     0.36400
N351        N  0.44480777  0.09775941  0.19082824    -0.43900
N352        N  0.41579802  0.23273339  0.15360088    -0.43900
C353        C  0.17426189  0.21546343  0.16644651    -0.00300
C354        C  0.20021608  0.23562872  0.18116175    -0.12200
C355        C  0.20049375  0.25782737  0.19839221     0.02000
C356        C  0.17435138  0.26037167  0.20090710    -0.00400
C357        C  0.14911969  0.24140376  0.18461486    -0.12100
C358        C  0.14889104  0.21924311  0.16746556     0.01800
H359        H  0.21986913  0.23307328  0.18034686     0.14800
H360        H  0.12920175  0.24351029  0.18561670     0.14800
C361        C  0.12239649  0.20095016  0.15088422     0.36500
C362        C  0.22732898  0.27613875  0.21450457     0.36400
N363        N  0.10121907  0.18637196  0.13753550    -0.43900
N364        N  0.24892462  0.29065863  0.22735839    -0.43900
C365        C  0.21459501  0.04844602  0.14611283    -0.00300
C366        C  0.24327221  0.05144001  0.14811068    -0.12200
C367        C  0.26594919  0.07443361  0.16432698     0.02000
C368        C  0.25961590  0.09406347  0.17976335    -0.00400
C369        C  0.23221907  0.09294558  0.17543383    -0.12100
C370        C  0.21008228  0.07102922  0.15858046     0.01800
H371        H  0.24786454  0.03551126  0.13754870     0.14800
H372        H  0.22744749  0.10871328  0.18610798     0.14800
C373        C  0.18302101  0.07268612  0.15512175     0.36500
C374        C  0.29566563  0.07804010  0.16415579     0.36400
N375        N  0.16147468  0.07422572  0.15254854    -0.43900
N376        N  0.31961161  0.08123866  0.16408076    -0.43900
C377        C  0.28847905  0.45581642  0.17143141    -0.00300
C378        C  0.28560836  0.42718092  0.17296629    -0.12200
C379        C  0.26256326  0.40388855  0.18869046     0.02000
C380        C  0.24144535  0.40892735  0.20315756    -0.00400
C381        C  0.24392955  0.43735014  0.20106927    -0.12100
C382        C  0.26738656  0.46080142  0.18584090     0.01800
H383        H  0.30160972  0.42298454  0.16195543     0.14800
H384        H  0.22838794  0.44181604  0.21258606     0.14800
C385        C  0.27035936  0.49017718  0.18726909     0.36500
C386        C  0.26128774  0.37515995  0.18948439     0.36400
N387        N  0.27879242  0.02239854  0.19850906    -0.43900
N388        N  0.26043026  0.35223233  0.19017320    -0.43900
C389        C  0.06245778  0.05424866  0.13794607    -0.00300
C390        C  0.07226724  0.06993205  0.16321841    -0.12200
C391        C  0.09989773  0.09677105  0.16486476     0.02000
C392        C  0.11797088  0.10858653  0.14067321    -0.00400
C393        C  0.10839472  0.09257176  0.11548596    -0.12100
C394        C  0.08077138  0.06564467  0.11391327     0.01800
H395        H  0.05810931  0.06115866  0.18173526     0.14800
H396        H  0.12216052  0.10158954  0.09675500     0.14800
C397        C  0.07122975  0.05072623  0.08728012     0.36500
C398        C  0.10965130  0.11101368  0.19178358     0.36400
N399        N  0.06362811  0.03883474  0.06588221    -0.43900
N400        N  0.11748324  0.12217096  0.21345872    -0.43900
C401        C  0.50894750  0.05936078  0.14066636    -0.00300
C402        C  0.50976414  0.07430681  0.16536322    -0.12200
C403        C  0.51295983  0.10293305  0.16444747     0.02000
C404        C  0.51489406  0.11674324  0.13841079    -0.00400
C405        C  0.01926133  0.10596500  0.11180260    -0.12100
C406        C  0.01481654  0.07686391  0.11118451     0.01800
H407        H  0.50773090  0.06347322  0.18536239     0.14800
H408        H  0.02107109  0.11748275  0.09227593     0.14800
C409        C  0.01292827  0.06321947  0.08437704     0.36500
C410        C  0.51472390  0.11790098  0.19047311     0.36400
N411        N  0.01092920  0.05238865  0.06272303    -0.43900
N412        N  0.51620884  0.12989645  0.21135466    -0.43900
C413        C  0.05491474  0.48882585  0.14032700    -0.00300
C414        C  0.06123577  0.98487162  0.10958759    -0.12200
C415        C  0.08698912  0.98262840  0.10605593     0.02000
C416        C  0.10815080  0.48681874  0.13121213    -0.00400
C417        C  0.10232125  0.49568354  0.15720267    -0.12100
C418        C  0.07592944  0.49649821  0.16197855     0.01800
H419        H  0.04620749  0.98025875  0.09208868     0.14800
H420        H  0.11878574  0.50258999  0.17379668     0.14800
C421        C  0.07110682  0.50545951  0.18917840     0.36500
C422        C  0.09302822  0.97531034  0.07858097     0.36400
N423        N  0.06746326  0.51266729  0.21107179    -0.43900
N424        N  0.09736730  0.96961825  0.05627701    -0.43900
C425        C  0.49551999  0.43935011  0.13851108    -0.00300
C426        C  0.49356775  0.42688657  0.11202696    -0.12200
C427        C  0.49515290  0.40063559  0.10901199     0.02000
C428        C  0.49882879  0.38662673  0.13286445    -0.00400
C429        C  0.00050985  0.39584070  0.16207166    -0.12100
C430        C  0.99984705  0.42266178  0.16479758     0.01800
H431        H  0.49203689  0.43839625  0.09363931     0.14800
H432        H  0.00459738  0.38596648  0.18030298     0.14800
C433        C  0.00363945  0.43588116  0.19213364     0.36500
C434        C  0.49477580  0.38959711  0.08119426     0.36400
N435        N  0.00634489  0.44627231  0.21411450    -0.43900
N436        N  0.49456886  0.38081084  0.05889164    -0.43900
C437        C  0.38392198  0.39610852  0.13671498    -0.00300
C438        C  0.39791869  0.41331170  0.11269387    -0.12200
C439        C  0.42713591  0.43816381  0.11376661     0.02000
C440        C  0.44273168  0.44629716  0.13929259    -0.00400
C441        C  0.42867353  0.42948038  0.16345665    -0.12100
C442        C  0.39946042  0.40450094  0.16237406     0.01800
H443        H  0.38669623  0.40651643  0.09288370     0.14800
H444        H  0.44051109  0.43594332  0.18313496     0.14800
C445        C  0.38580161  0.38810756  0.18790534     0.36500
C446        C  0.44095098  0.45447915  0.08825720     0.36400
N447        N  0.37483071  0.37498237  0.20836370    -0.43900
N448        N  0.45194280  0.46758757  0.06780136    -0.43900
C449        C  0.44995816  0.50537043  0.14365421    -0.00300
C450        C  0.43598892  0.00944519  0.11622650    -0.12200
C451        C  0.40956548  0.01094074  0.11508440     0.02000
C452        C  0.39423754  0.50329409  0.14126952    -0.00400
C453        C  0.40448970  0.49803679  0.16661981    -0.12100
C454        C  0.43231165  0.49937354  0.16802220     0.01800
H455        H  0.44667464  0.00840783  0.09700026     0.14800
H456        H  0.39090012  0.49315943  0.18537668     0.14800
C457        C  0.44228037  0.49439258  0.19458517     0.36500
C458        C  0.39676016  0.00998695  0.08807460     0.36400
N459        N  0.45029057  0.49045593  0.21589606    -0.43900
N460        N  0.38650537  0.00900722  0.06636502    -0.43900
C461        C  0.32847435  0.09062328  0.45033506    -0.00300
C462        C  0.31028706  0.05957859  0.45581137    -0.12200
C463        C  0.31193479  0.03821579  0.43892007     0.02000
C464        C  0.33142592  0.04773265  0.41551781    -0.00400
C465        C  0.34920657  0.07865190  0.40965110    -0.12100
C466        C  0.34797152  0.10009628  0.42680534     0.01800
H467        H  0.29584399  0.05199757  0.47419663     0.14800
H468        H  0.36416717  0.08606910  0.39162865     0.14800
C469        C  0.36681536  0.13160348  0.41965603     0.36500
C470        C  0.29532249  0.00690204  0.44734561     0.36400
N471        N  0.38197852  0.15685781  0.41400559    -0.43900
N472        N  0.26758333  0.48295479  0.43244511    -0.43900
C473        C  0.33279373  0.05297454  0.10743854    -0.00300
C474        C  0.30540214  0.04370748  0.09371563    -0.12200
C475        C  0.30259279  0.06241283  0.07398238     0.02000
C476        C  0.32752693  0.09142297  0.06801907    -0.00400
C477        C  0.35417503  0.10126380  0.08320566    -0.12100
C478        C  0.35708572  0.08247424  0.10247055     0.01800
H479        H  0.28658120  0.02115492  0.09726764     0.14800
H480        H  0.37331787  0.12366220  0.07952785     0.14800
C481        C  0.38558848  0.09418326  0.11646295     0.36500
C482        C  0.27454152  0.05024525  0.05903245     0.36400
N483        N  0.40867940  0.10365303  0.12724192    -0.43900
N484        N  0.25197756  0.04016124  0.04713104    -0.43900
C485        C  0.21214184  0.16858492  0.41742820    -0.00300
C486        C  0.21800024  0.14474250  0.41547421    -0.12200
C487        C  0.23943644  0.14351717  0.43239322     0.02000
C488        C  0.25586674  0.16677049  0.45186381    -0.00400
C489        C  0.25063989  0.19115994  0.45312754    -0.12100
C490        C  0.22887012  0.19209405  0.43640498     0.01800
H491        H  0.20545368  0.12667052  0.40087082     0.14800
H492        H  0.26264783  0.20903442  0.46814591     0.14800
C493        C  0.22251977  0.21610245  0.44084539     0.36500
C494        C  0.24381341  0.11804545  0.42909492     0.36400
N495        N  0.21711473  0.23510907  0.44456836    -0.43900
N496        N  0.24702098  0.09747689  0.42628120    -0.43900
C497        C  0.40756834  0.24047083  0.45163253    -0.00300
C498        C  0.43818551  0.25082027  0.45697221    -0.12200
C499        C  0.46109143  0.27348543  0.44052198     0.02000
C500        C  0.45358551  0.28602198  0.41797824    -0.00400
C501        C  0.42312324  0.27549494  0.41228844    -0.12100
C502        C  0.40016406  0.25281005  0.42869753     0.01800
H503        H  0.44435614  0.24201659  0.47473201     0.14800
H504        H  0.41725737  0.28503542  0.39489879     0.14800
C505        C  0.36929297  0.24216710  0.42105750     0.36500
C506        C  0.49208199  0.28493190  0.44833332     0.36400
N507        N  0.34453510  0.23350078  0.41487876    -0.43900
N508        N  0.01530709  0.28700628  0.43767727    -0.43900
C509        C  0.22223828  0.17055442  0.10868313    -0.00300
C510        C  0.22358481  0.14419637  0.10443089    -0.12200
C511        C  0.24397976  0.14347853  0.08548563     0.02000
C512        C  0.26355378  0.16957489  0.06980962    -0.00400
C513        C  0.26391402  0.19656825  0.07568279    -0.12100
C514        C  0.24365877  0.19732778  0.09491725     0.01800
H515        H  0.20809053  0.12363942  0.11561478     0.14800
H516        H  0.27924281  0.21703339  0.06429628     0.14800
C517        C  0.24440003  0.22550881  0.09869232     0.36500
C518        C  0.24440134  0.11568749  0.08297101     0.36400
N519        N  0.24508291  0.24816166  0.10169118    -0.43900
N520        N  0.24469165  0.09338665  0.08120721    -0.43900
C521        C  0.45691014  0.28332957  0.09951486    -0.00300
C522        C  0.42865700  0.28127829  0.09759936    -0.12200
C523        C  0.40576112  0.25989262  0.08063551     0.02000
C524        C  0.41062172  0.23938915  0.06494929    -0.00400
C525        C  0.43843483  0.24048364  0.06783499    -0.12100
C526        C  0.46153934  0.26226813  0.08465668     0.01800
H527        H  0.42448020  0.29697201  0.10920643     0.14800
H528        H  0.44276772  0.22514071  0.05582096     0.14800
C529        C  0.49036703  0.26387707  0.08445401     0.36500
C530        C  0.37763582  0.25981021  0.07989254     0.36400
N531        N  0.51349648  0.26519771  0.08397122    -0.43900
N532        N  0.35527132  0.26006699  0.07942708    -0.43900
C533        C  0.04698692  0.22100071  0.39341403    -0.00300
C534        C  0.07775025  0.23207387  0.38864708    -0.12200
C535        C  0.09961061  0.25368315  0.40627029     0.02000
C536        C  0.09065060  0.26365387  0.42998389    -0.00400
C537        C  0.05982864  0.25351192  0.43397895    -0.12100
C538        C  0.03804035  0.23240113  0.41592657     0.01800
H539        H  0.08466448  0.22345900  0.37132575     0.14800
H540        H  0.05255142  0.26095916  0.45205128     0.14800
C541        C  0.00658070  0.22084048  0.42232269     0.36500
C542        C  0.13097728  0.26567629  0.39916198     0.36400
N543        N  0.48663857  0.23133680  0.40656239    -0.43900
N544        N  0.15612214  0.27556421  0.39335827    -0.43900
C545        C  0.04642621  0.21622805  0.09376099    -0.00300
C546        C  0.05906183  0.24687483  0.10059444    -0.12200
C547        C  0.07947786  0.26958957  0.08222211     0.02000
C548        C  0.08763083  0.26145582  0.05681778    -0.00400
C549        C  0.07364658  0.23090161  0.04962193    -0.12100
C550        C  0.05308890  0.20847579  0.06751090     0.01800
H551        H  0.05373990  0.25303365  0.12061402     0.14800
H552        H  0.07873371  0.22441567  0.02964055     0.14800
C553        C  0.03846123  0.17768793  0.05783473     0.36500
C554        C  0.09245782  0.30072167  0.09039676     0.36400
N555        N  0.02672470  0.15320344  0.04961873    -0.43900
N556        N  0.10265086  0.32562893  0.09705839    -0.43900
C557        C  0.17020323  0.40969944  0.43249842    -0.00300
C558        C  0.19086617  0.44055668  0.43683399    -0.12200
C559        C  0.19031140  0.46281888  0.42026152     0.02000
C560        C  0.16942411  0.45428927  0.39833818    -0.00400
C561        C  0.14969016  0.42357933  0.39327801    -0.12100
C562        C  0.14950333  0.40133917  0.41029036     0.01800
H563        H  0.20634863  0.44739164  0.45418520     0.14800
H564        H  0.13416458  0.41700916  0.37616669     0.14800
C565        C  0.12745183  0.37023782  0.40460024     0.36500
C566        C  0.20951404  0.49411049  0.42764515     0.36400
N567        N  0.10952588  0.34537541  0.40017019    -0.43900
N568        N  0.22463443  0.51917953  0.43370835    -0.43900
C569        C  0.28576834  0.32879040  0.40016688    -0.00300
C570        C  0.27449274  0.34760094  0.39267592    -0.12200
C571        C  0.25204246  0.34831207  0.40873880     0.02000
C572        C  0.24046782  0.32971558  0.43263474    -0.00400
C573        C  0.25146687  0.31048023  0.43968833    -0.12100
C574        C  0.27421681  0.31016339  0.42390046     0.01800
H575        H  0.28365597  0.36215493  0.37445590     0.14800
H576        H  0.24335786  0.29676625  0.45850799     0.14800
C577        C  0.28706476  0.29255649  0.43377904     0.36500
C578        C  0.24129292  0.36817474  0.40027497     0.36400
N579        N  0.29751901  0.27872991  0.44204923    -0.43900
N580        N  0.23267496  0.38411993  0.39358725    -0.43900
C581        C  0.17597723  0.45879685  0.08468871    -0.00300
C582        C  0.15893745  0.45069925  0.06017694    -0.12200
C583        C  0.15820230  0.42907899  0.04214916     0.02000
C584        C  0.17517213  0.41512095  0.04824972    -0.00400
C585        C  0.19364073  0.42433864  0.07201964    -0.12100
C586        C  0.19389292  0.44580953  0.09042651     0.01800
H587        H  0.14566579  0.46106032  0.05525574     0.14800
H588        H  0.20683017  0.41382826  0.07684808     0.14800
C589        C  0.21083238  0.45242166  0.11593343     0.36500
C590        C  0.13987534  0.42185014  0.01737740     0.36400
N591        N  0.22418468  0.45758107  0.13652757    -0.43900
N592        N  0.12740368  0.41613719  0.49281757    -0.43900
C593        C  0.28438093  0.33697766  0.09266999    -0.00300
C594        C  0.25387578  0.31525104  0.09732523    -0.12200
C595        C  0.23116674  0.31279643  0.07931577     0.02000
C596        C  0.23894952  0.33212491  0.05577510    -0.00400
C597        C  0.26932336  0.35414410  0.05165970    -0.12100
C598        C  0.29177373  0.35695001  0.06970781     0.01800
H599        H  0.24767253  0.30059258  0.11544873     0.14800
H600        H  0.27587443  0.36925638  0.03382236     0.14800
C601        C  0.32218183  0.38041978  0.06326142     0.36500
C602        C  0.20017958  0.29130186  0.08630499     0.36400
N603        N  0.34612902  0.39969051  0.05743677    -0.43900
N604        N  0.17536947  0.27424585  0.09216426    -0.43900
Fe605      Fe  0.20660019  0.37010518  0.49189126     1.65800
Fe606      Fe  0.12860879  0.33424671  0.99551907     1.73200
Fe607      Fe  0.16321901  0.29279647  0.99739156     1.54400
O608        O  0.19849752  0.30360898  0.96976092    -0.81800
O609        O  0.11266773  0.30733166  0.52741011    -0.80100
O610        O  0.21785486  0.35168943  0.95790914    -0.84300
O611        O  0.22462829  0.35171702  0.51879048    -0.79200
O612        O  0.13434217  0.27686663  0.96398174    -0.80900
O613        O  0.14811105  0.37248364  0.51877422    -0.83700
C614        C  0.21701544  0.32622165  0.52975695     0.97100
C615        C  0.21571888  0.32618782  0.95459460     1.04500
O616        O  0.16569229  0.33211305  0.99486744    -1.12700
O617        O  0.14113242  0.36112996  0.96049479    -0.75100
O618        O  0.19098176  0.38897499  0.96201895    -0.78600
O619        O  0.19235099  0.30239173  0.52398691    -0.79300
C620        C  0.16585014  0.38300166  0.95171892     0.96000
O621        O  0.19663261  0.38874629  0.52582601    -0.77200
O622        O  0.10550144  0.29732741  0.96933891    -0.82400
C623        C  0.11109510  0.28210308  0.53129498     0.98600
C624        C  0.11171447  0.27909795  0.95718451     1.04500
O625        O  0.12721483  0.27425538  0.51756277    -0.78100
C626        C  0.17317493  0.39055020  0.52989907     1.02800
Fe627      Fe  0.36959574  0.16431575  0.00502021     1.65800
Fe628      Fe  0.29070998  0.12743570  0.51194398     1.73200
Fe629      Fe  0.33217404  0.20434719  0.51041617     1.61200
O630        O  0.36862610  0.22385750  0.53701291    -0.81800
O631        O  0.27684260  0.14320062  0.97187000    -0.80100
O632        O  0.38380264  0.19096595  0.54506870    -0.84300
O633        O  0.39055455  0.19828359  0.97551872    -0.79200
O634        O  0.30415893  0.19386155  0.54486942    -0.80900
O635        O  0.30539465  0.10762794  0.97465271    -0.83700
C636        C  0.38528116  0.21750903  0.96420157     0.97100
C637        C  0.38476692  0.21568914  0.55006660     1.04500
O638        O  0.32992612  0.16505951  0.51101805    -1.12700
O639        O  0.30198393  0.10978924  0.54554170    -0.75100
O640        O  0.35029921  0.12654315  0.53686291    -0.78600
O641        O  0.36363012  0.22115599  0.97171529    -0.79300
C642        C  0.32599018  0.10926029  0.54994470     0.96000
O643        O  0.35541933  0.13351656  0.97288315    -0.77200
O644        O  0.27241672  0.14454784  0.54016186    -0.82400
C645        C  0.28006194  0.16865813  0.96564229     0.98600
C646        C  0.28060325  0.16959054  0.55216542     1.04500
O647        O  0.29923059  0.19282315  0.97758123    -0.78100
C648        C  0.33024844  0.11237321  0.96434340     1.02800
C649        C  0.47760030  0.50058623  0.62719101     0.02200
C650        C  0.47697935  0.47293446  0.62546199     0.02200
C651        C  0.50411612  0.47228264  0.62622436     0.02200
C652        C  0.02515933  0.49681809  0.62653711     0.02200
C653        C  0.02963950  0.02261997  0.63513827     0.02200
C654        C  0.00333911  0.02481310  0.63477280     0.02200
C655        C  0.31469181  0.47947584  0.65122829     0.80100
N656        N  0.30916823  0.99974830  0.63541346    -0.78200
C657        C  0.33348071  0.02140679  0.62105910     0.82500
N658        N  0.35922842  0.02022973  0.62058930    -0.78200
C659        C  0.36449827  0.49976949  0.63430672     0.82600
N660        N  0.34107148  0.47924492  0.65017130    -0.79900
C661        C  0.19197024  0.02632860  0.62812445     0.80100
N662        N  0.16345669  0.02070058  0.63139286    -0.78200
C663        C  0.13646927  0.49572733  0.61679025     0.82500
N664        N  0.14188456  0.47739806  0.60062180    -0.78200
C665        C  0.17004006  0.48119855  0.59901461     0.82600
N666        N  0.19305106  0.50397081  0.61360618    -0.79900
C667        C  0.19249645  0.16697703  0.62933687     0.80100
N668        N  0.16695022  0.13957165  0.62982803    -0.78200
C669        C  0.14200792  0.13532037  0.64351306     0.82500
N670        N  0.14244702  0.15891086  0.65653661    -0.78200
C671        C  0.16762533  0.18662827  0.65611159     0.82600
N672        N  0.19279020  0.19053625  0.64263935    -0.79900
C673        C  0.47702395  0.16046832  0.63048121     0.80100
N674        N  0.49706464  0.18429078  0.61433488    -0.78200
C675        C  0.02739894  0.18874511  0.60744102     0.82500
N676        N  0.03013411  0.16384620  0.61026048    -0.78200
C677        C  0.50468904  0.13607749  0.62155922     0.82600
N678        N  0.48144643  0.13684116  0.63392552    -0.79900
C679        C  0.31344308  0.33183439  0.59711158     0.80100
N680        N  0.33937894  0.35913375  0.59816044    -0.78200
C681        C  0.36296422  0.36267873  0.61352787     0.82500
N682        N  0.36079063  0.33878674  0.62729059    -0.78200
C683        C  0.33581967  0.31118446  0.62619587     0.82600
N684        N  0.31174327  0.30771091  0.61110788    -0.79900
C685        C  0.02115658  0.33173994  0.64689444     0.80100
N686        N  0.02119459  0.35818775  0.64525837    -0.78200
C687        C  0.50220997  0.35900455  0.63017694     0.82500
N688        N  0.47964363  0.33449874  0.61758023    -0.78200
C689        C  0.47847051  0.30757787  0.61832943     0.82600
N690        N  0.50033755  0.30527576  0.63208605    -0.79900
Fe691      Fe  0.33506490  0.12911313  0.74110294     1.65800
Fe692      Fe  0.29591903  0.16638160  0.74245579     1.73200
Fe693      Fe  0.37260056  0.20602989  0.73843017     1.54400
O694        O  0.39170761  0.19539138  0.77140829    -0.81800
O695        O  0.30916742  0.20208935  0.71449752    -0.80100
O696        O  0.37079503  0.14552884  0.76891105    -0.84300
O697        O  0.36389579  0.14140918  0.70759512    -0.79200
O698        O  0.35779747  0.22688301  0.76637013    -0.80900
O699        O  0.27968784  0.13772441  0.70892325    -0.83700
C700        C  0.38641997  0.16591958  0.69939173     0.97100
C701        C  0.39018431  0.17094166  0.77905454     1.04500
O702        O  0.33458380  0.16716667  0.74087572    -1.12700
O703        O  0.27602322  0.13038006  0.77056421    -0.75100
O704        O  0.30588682  0.11119653  0.77473240    -0.78600
O705        O  0.39282310  0.19120663  0.70973544    -0.79300
C706        C  0.28247421  0.11189296  0.78175360     0.96000
O707        O  0.30003516  0.10854670  0.71271797    -0.77200
O708        O  0.30912342  0.19554574  0.77586174    -0.82400
C709        C  0.33290004  0.21952860  0.70069176     0.98600
C710        C  0.33362487  0.22016678  0.77958235     1.04500
O711        O  0.35770548  0.22050591  0.70517670    -0.78100
C712        C  0.28212604  0.11544140  0.70113574     1.02800
Fe713      Fe  0.12669613  0.29465867  0.76002398     1.65800
Fe714      Fe  0.20307857  0.33591559  0.76191779     1.73200
Fe715      Fe  0.16251288  0.37157864  0.75765177     1.54400
O716        O  0.13385734  0.35660878  0.72388518    -0.81800
O717        O  0.22157023  0.37274579  0.78771276    -0.80100
O718        O  0.10524731  0.30721286  0.73116792    -0.84300
O719        O  0.10855539  0.30683514  0.79245415    -0.79200
O720        O  0.19872655  0.39230786  0.73003847    -0.80900
O721        O  0.19044799  0.30828648  0.79698512    -0.83700
C722        C  0.10860722  0.33104057  0.79774306     0.97100
C723        C  0.11094352  0.33121940  0.71843574     1.04500
O724        O  0.16410672  0.33411992  0.75981827    -1.12700
O725        O  0.19024703  0.29927724  0.73609881    -0.75100
O726        O  0.14133260  0.27836426  0.72773677    -0.78600
O727        O  0.12631183  0.35576933  0.78528674    -0.79300
C728        C  0.16661728  0.28012624  0.72352708     0.96000
O729        O  0.14208312  0.27605628  0.78910289    -0.77200
O730        O  0.22008859  0.36401927  0.72741446    -0.82400
C731        C  0.21490100  0.39143533  0.79784508     0.98600
C732        C  0.21834168  0.38679528  0.71983511     1.04500
O733        O  0.19114188  0.39147819  0.79103210    -0.78100
C734        C  0.16606904  0.28398727  0.80259503     1.02800
C735        C  0.47412155  0.00150932  0.85943286     0.02200
C736        C  0.46795585  0.47312918  0.86526887     0.02200
C737        C  0.99688181  0.47413843  0.86425092     0.02200
C738        C  0.02589544  0.99778413  0.85176824     0.02200
C739        C  0.02908776  0.02691163  0.85182397     0.02200
C740        C  0.00311887  0.02987004  0.85233536     0.02200
C741        C  0.18843321  0.01990968  0.85289832     0.80100
N742        N  0.16076084  0.01674784  0.85015498    -0.78200
C743        C  0.13611557  0.99386719  0.86271258     0.82500
N744        N  0.13789832  0.47340235  0.87949457    -0.78200
C745        C  0.16430829  0.47332875  0.87988244     0.82600
N746        N  0.19125590  0.99907670  0.86826350    -0.79900
C747        C  0.31046072  0.48306276  0.86511154     0.80100
N748        N  0.33806229  0.48624699  0.86184986    -0.78200
C749        C  0.36358796  0.00505549  0.87286524     0.82500
N750        N  0.36103704  0.02612065  0.88788139    -0.78200
C751        C  0.33361687  0.02391381  0.89128763     0.82600
N752        N  0.30880742  0.00023167  0.87973566    -0.79900
C753        C  0.48209615  0.16869425  0.84870038     0.80100
N754        N  0.50335827  0.19297135  0.86334210    -0.78200
C755        C  0.02720428  0.19416231  0.87690071     0.82500
N756        N  0.02845790  0.16851770  0.87427946    -0.78200
C757        C  0.50620418  0.14157407  0.86100752     0.82600
N758        N  0.48414136  0.14341762  0.84753646    -0.79900
C759        C  0.18962551  0.16690257  0.89297487     0.80100
N760        N  0.16534330  0.13932809  0.88749344    -0.78200
C761        C  0.14195027  0.13701310  0.87242021     0.82500
N762        N  0.14323330  0.16238284  0.86262524    -0.78200
C763        C  0.16727910  0.19005432  0.86780726     0.82600
N764        N  0.19043897  0.19216421  0.88312880    -0.79900
C765        C  0.01633581  0.33330035  0.86596167     0.80100
N766        N  0.01291080  0.35749577  0.86225321    -0.78200
C767        C  0.98969400  0.35880218  0.87410455     0.82500
N768        N  0.46824164  0.33230080  0.88614452    -0.78200
C769        C  0.47094067  0.30748659  0.88869528     0.82600
N770        N  0.99551719  0.30955729  0.88149037    -0.79900
C771        C  0.30646326  0.32586620  0.88358391     0.80100
N772        N  0.33150276  0.35369911  0.88339499    -0.78200
C773        C  0.35656680  0.35881919  0.86927735     0.82500
N774        N  0.35625270  0.33604836  0.85471683    -0.78200
C775        C  0.33150162  0.30794750  0.85473915     0.82600
N776        N  0.30653534  0.30288597  0.86939491    -0.79900
C777        C  0.00600066  0.06031006  0.85291612    -0.00300
C778        C  0.51658627  0.07575120  0.88127743    -0.12200
C779        C  0.51785196  0.10354159  0.88276193     0.02000
C780        C  0.50719056  0.11332508  0.86016991    -0.00400
C781        C  0.99633804  0.09830615  0.83330641    -0.12100
C782        C  0.99518739  0.07060852  0.83098279     0.01800
H783        H  0.52378023  0.06784947  0.89891253     0.14800
H784        H  0.98770193  0.10578121  0.81633442     0.14800
C785        C  0.98341772  0.05353693  0.80559955     0.36500
C786        C  0.52915071  0.12078216  0.90813943     0.36400
N787        N  0.97412599  0.04010294  0.78510909    -0.43900
N788        N  0.53835748  0.13460055  0.92844975    -0.43900
C789        C  0.05953007  0.05420540  0.85556091    -0.00300
C790        C  0.07406162  0.05806365  0.88129288    -0.12200
C791        C  0.10143720  0.08430733  0.88701121     0.02000
C792        C  0.11479847  0.10742569  0.86669547    -0.00400
C793        C  0.10052250  0.10329176  0.84078233    -0.12100
C794        C  0.07318450  0.07707378  0.83507525     0.01800
H795        H  0.06336075  0.04092721  0.89735394     0.14800
H796        H  0.11057876  0.12084621  0.82501209     0.14800
C797        C  0.05964561  0.07456370  0.80815195     0.36500
C798        C  0.11404323  0.08770867  0.91455624     0.36400
N799        N  0.04932542  0.07303583  0.78636398    -0.43900
N800        N  0.12399406  0.09039667  0.93670665    -0.43900
C801        C  0.38370769  0.38920471  0.86861216    -0.00300
C802        C  0.39822911  0.40073761  0.84286045    -0.12200
C803        C  0.42462007  0.42887647  0.84116303     0.02000
C804        C  0.43766079  0.44538036  0.86570210    -0.00400
C805        C  0.42275185  0.43439097  0.89136511    -0.12100
C806        C  0.39572199  0.40669511  0.89297636     0.01800
H807        H  0.38867809  0.38785416  0.82392367     0.14800
H808        H  0.43268790  0.44717062  0.91025795     0.14800
C809        C  0.38159091  0.39624190  0.92000922     0.36500
C810        C  0.43735514  0.44076005  0.81396688     0.36400
N811        N  0.37029278  0.38805064  0.94172055    -0.43900
N812        N  0.44702783  0.45031950  0.79201047    -0.43900
C813        C  0.39308150  0.00677570  0.86887353    -0.00300
C814        C  0.41200941  0.01228379  0.89189328    -0.12200
C815        C  0.43842215  0.01070646  0.88923483     0.02000
C816        C  0.44651762  0.00402466  0.86310139    -0.00400
C817        C  0.42687040  0.50130648  0.84536835    -0.12100
C818        C  0.40117085  0.50392516  0.84669229     0.01800
H819        H  0.40558145  0.01666825  0.91216764     0.14800
H820        H  0.43430740  0.49728208  0.82545538     0.14800
C821        C  0.38572546  0.50203318  0.82099374     0.36500
C822        C  0.45609436  0.01451110  0.91383318     0.36400
N823        N  0.37335026  0.50065624  0.80043878    -0.43900
N824        N  0.47017647  0.01733128  0.93356791    -0.43900
C825        C  0.10664428  0.99231471  0.85985543    -0.00300
C826        C  0.09968131  0.50614224  0.84179420    -0.12200
C827        C  0.07324512  0.50753536  0.84055016     0.02000
C828        C  0.05328619  0.99484989  0.85356500    -0.00400
C829        C  0.05875547  0.98385689  0.87838417    -0.12100
C830        C  0.08499116  0.98229794  0.88165717     0.01800
H831        H  0.11451924  0.51299383  0.82369732     0.14800
H832        H  0.04271659  0.97711450  0.89554358     0.14800
C833        C  0.08969124  0.97184539  0.90811411     0.36500
C834        C  0.06673723  0.51783584  0.81491416     0.36400
N835        N  0.09336705  0.96344261  0.92935732    -0.43900
N836        N  0.06179279  0.52580579  0.79402699    -0.43900
C837        C  0.99419013  0.44400847  0.86589606    -0.00300
C838        C  0.98406540  0.42782316  0.89107977    -0.12200
C839        C  0.98062380  0.39917966  0.89380218     0.02000
C840        C  0.98859181  0.38680926  0.87129036    -0.00400
C841        C  0.49460425  0.39957415  0.84342668    -0.12100
C842        C  0.49611210  0.42734434  0.84096845     0.01800
H843        H  0.97888343  0.43770203  0.90868318     0.14800
H844        H  0.49912496  0.38989007  0.82524284     0.14800
C845        C  0.50259659  0.44159551  0.81385128     0.36500
C846        C  0.96988460  0.38361000  0.92019851     0.36400
N847        N  0.50748122  0.45229096  0.79176413    -0.43900
N848        N  0.96103922  0.37103579  0.94128833    -0.43900
C849        C  0.16779378  0.21713926  0.85593485    -0.00300
C850        C  0.14019897  0.21478921  0.84914636    -0.12200
C851        C  0.13894939  0.23721950  0.83371600     0.02000
C852        C  0.16589928  0.26295721  0.82427721    -0.00400
C853        C  0.19350076  0.26666506  0.83343845    -0.12100
C854        C  0.19461582  0.24417090  0.84910634     0.01800
H855        H  0.11928438  0.19480233  0.85521118     0.14800
H856        H  0.21445982  0.28641327  0.82707900     0.14800
C857        C  0.22371971  0.24877041  0.85618954     0.36500
C858        C  0.10940821  0.23231144  0.82752368     0.36400
N859        N  0.24703415  0.25230344  0.86195607    -0.43900
N860        N  0.08539928  0.22764168  0.82285107    -0.43900
C861        C  0.04205383  0.33278300  0.85215024    -0.00300
C862        C  0.03860963  0.30503319  0.84396125    -0.12200
C863        C  0.06015608  0.30367116  0.82694195     0.02000
C864        C  0.08662611  0.33057682  0.81856237    -0.00400
C865        C  0.09099050  0.35819792  0.82855294    -0.12100
C866        C  0.06902039  0.35962327  0.84473124     0.01800
H867        H  0.01801561  0.28428094  0.84930466     0.14800
H868        H  0.11122286  0.37908670  0.82277499     0.14800
C869        C  0.07442029  0.38916349  0.85229744     0.36500
C870        C  0.05284611  0.27445627  0.81649545     0.36400
N871        N  0.07824892  0.41274040  0.85791317    -0.43900
N872        N  0.04653370  0.25101861  0.80779138    -0.43900
C873        C  0.23672299  0.41421167  0.81766259    -0.00300
C874        C  0.25898813  0.40905863  0.82872209    -0.12200
C875        C  0.28292512  0.43093261  0.84414540     0.02000
C876        C  0.28451661  0.45865027  0.85005858    -0.00400
C877        C  0.26176647  0.46360065  0.83999864    -0.12100
C878        C  0.23820296  0.44194984  0.82360432     0.01800
H879        H  0.25837975  0.38801016  0.82455467     0.14800
H880        H  0.26326762  0.48513125  0.84366969     0.14800
C881        C  0.21733611  0.44988567  0.81181778     0.36500
C882        C  0.30582542  0.42424419  0.85280343     0.36400
N883        N  0.20090566  0.45661724  0.80233203    -0.43900
N884        N  0.32430984  0.41889300  0.85916564    -0.43900
C885        C  0.41239127  0.17159066  0.79978197    -0.00300
C886        C  0.40878363  0.14394015  0.80893036    -0.12200
C887        C  0.43034279  0.14247860  0.82552694     0.02000
C888        C  0.45689967  0.16932257  0.83363430    -0.00400
C889        C  0.45979157  0.19708641  0.82592859    -0.12100
C890        C  0.43804246  0.19849720  0.80923506     0.01800
H891        H  0.38913242  0.12298130  0.80264667     0.14800
H892        H  0.47965290  0.21789296  0.83214691     0.14800
C893        C  0.44340226  0.22800220  0.80164204     0.36500
C894        C  0.42410039  0.11274542  0.83370339     0.36400
N895        N  0.44781634  0.25172661  0.79565428    -0.43900
N896        N  0.41895529  0.08884194  0.84001328    -0.43900
C897        C  0.26114295  0.08981417  0.80308163    -0.00300
C898        C  0.23796713  0.09398196  0.81369564    -0.12200
C899        C  0.21509418  0.07240081  0.83094832     0.02000
C900        C  0.21471838  0.04541707  0.83813612    -0.00400
C901        C  0.23887861  0.04203113  0.82912534    -0.12100
C902        C  0.26185750  0.06371220  0.81178326     0.01800
H903        H  0.23723816  0.11401993  0.80804625     0.14800
H904        H  0.23917523  0.02171594  0.83458988     0.14800
C905        C  0.28496245  0.05758231  0.80244070     0.36500
C906        C  0.19229333  0.07882010  0.84077437     0.36400
N907        N  0.30340203  0.05250802  0.79504927    -0.43900
N908        N  0.17398172  0.08394551  0.84848086    -0.43900
C909        C  0.33373772  0.24253676  0.79924448    -0.00300
C910        C  0.31723757  0.23273214  0.82433701    -0.12200
C911        C  0.31597332  0.25325451  0.84288532     0.02000
C912        C  0.33148071  0.28445309  0.83641930    -0.00400
C913        C  0.34780182  0.29404737  0.81114159    -0.12100
C914        C  0.34872440  0.27356180  0.79252128     0.01800
H915        H  0.30537658  0.20889136  0.82955361     0.14800
H916        H  0.35924732  0.31773013  0.80538312     0.14800
C917        C  0.36329671  0.28479517  0.76572268     0.36500
C918        C  0.29921001  0.24136733  0.86850542     0.36400
N919        N  0.37462695  0.29375497  0.74413560    -0.43900
N920        N  0.28535804  0.23082875  0.88871964    -0.43900
C921        C  0.08876922  0.32969636  0.69780574    -0.00300
C922        C  0.05800639  0.30937644  0.70294806    -0.12200
C923        C  0.03573298  0.30948644  0.68637508     0.02000
C924        C  0.04405702  0.32989584  0.66384038    -0.00400
C925        C  0.07472078  0.34963080  0.65807603    -0.12100
C926        C  0.09708442  0.34961618  0.67472350     0.01800
H927        H  0.05122132  0.29431086  0.72085079     0.14800
H928        H  0.08119178  0.36517269  0.64056834     0.14800
C929        C  0.12829645  0.36991521  0.66743634     0.36500
C930        C  0.00451956  0.29015961  0.69428050     0.36400
N931        N  0.15332531  0.38610471  0.66161316    -0.43900
N932        N  0.97953752  0.27495860  0.70081124    -0.43900
C933        C  0.33247224  0.24080827  0.67950770    -0.00300
C934        C  0.36015309  0.26589317  0.67165694    -0.12200
C935        C  0.36181377  0.28845162  0.65415478     0.02000
C936        C  0.33509189  0.28617012  0.64304672    -0.00400
C937        C  0.30735871  0.26043044  0.64993749    -0.12100
C938        C  0.30576295  0.23807580  0.66813902     0.01800
H939        H  0.38092271  0.26866967  0.68012973     0.14800
H940        H  0.28667365  0.25820268  0.64191281     0.14800
C941        C  0.27633155  0.21288438  0.67486245     0.36500
C942        C  0.39162498  0.31400555  0.64907777     0.36400
N943        N  0.25266812  0.19281470  0.68028932    -0.43900
N944        N  0.41549630  0.33459906  0.64547964    -0.43900
C945        C  0.45120580  0.16035068  0.64542789    -0.00300
C946        C  0.44790293  0.18594558  0.64408602    -0.12200
C947        C  0.42610625  0.18797426  0.66038310     0.02000
C948        C  0.40698568  0.16407885  0.67849513    -0.00400
C949        C  0.40869196  0.13773054  0.67820702    -0.12100
C950        C  0.43022743  0.13551446  0.66218989     0.01800
H951        H  0.46283848  0.20481996  0.63081038     0.14800
H952        H  0.39380860  0.11890064  0.69162063     0.14800
C953        C  0.43002706  0.10734709  0.66445051     0.36500
C954        C  0.42361097  0.21462014  0.65802425     0.36400
N955        N  0.42942210  0.08460314  0.66652788    -0.43900
N956        N  0.42147723  0.23592359  0.65640035    -0.43900
C957        C  0.16768469  0.21205359  0.67089855    -0.00300
C958        C  0.19439267  0.23411144  0.68334869    -0.12200
C959        C  0.19503193  0.25694343  0.69982062     0.02000
C960        C  0.16832850  0.25828338  0.70401985    -0.00400
C961        C  0.14195071  0.23691218  0.69034552    -0.12100
C962        C  0.14137532  0.21407556  0.67396000     0.01800
H963        H  0.21478630  0.23293458  0.68102228     0.14800
H964        H  0.12134196  0.23764667  0.69273534     0.14800
C965        C  0.11351160  0.19348585  0.66014024     0.36500
C966        C  0.22342421  0.27787676  0.71258960     0.36400
N967        N  0.09115332  0.17710621  0.64908665    -0.43900
N968        N  0.24630261  0.29444070  0.72273775    -0.43900
C969        C  0.21674207  0.05226209  0.64343304    -0.00300
C970        C  0.24557949  0.05549400  0.64451165    -0.12200
C971        C  0.26811699  0.07724248  0.66173581     0.02000
C972        C  0.26173152  0.09579605  0.67880945    -0.00400
C973        C  0.23404566  0.09446918  0.67573683    -0.12100
C974        C  0.21176957  0.07335709  0.65833498     0.01800
H975        H  0.25041127  0.04058862  0.63242938     0.14800
H976        H  0.22913399  0.10927031  0.68795825     0.14800
C977        C  0.18398574  0.07398959  0.65716874     0.36500
C978        C  0.29769963  0.08052796  0.66097524     0.36400
N979        N  0.16184478  0.07467212  0.65644453    -0.43900
N980        N  0.32149783  0.08337916  0.66019722    -0.43900
C981        C  0.28875693  0.45569700  0.66753740    -0.00300
C982        C  0.28464218  0.42652421  0.66842638    -0.12200
C983        C  0.26127412  0.40335258  0.68413006     0.02000
C984        C  0.24118827  0.40907874  0.69971815    -0.00400
C985        C  0.24495493  0.43818518  0.69819279    -0.12100
C986        C  0.26849352  0.46136212  0.68263829     0.01800
H987        H  0.29989705  0.42178112  0.65688481     0.14800
H988        H  0.23028201  0.44340134  0.71020354     0.14800
C989        C  0.27245221  0.49116996  0.68436358     0.36500
C990        C  0.25885132  0.37411932  0.68371622     0.36400
N991        N  0.27699618  0.01441262  0.68993619    -0.43900
N992        N  0.25717637  0.35081277  0.68325165    -0.43900
C993        C  0.05952880  0.05059275  0.63714061    -0.00300
C994        C  0.06710947  0.06627563  0.66251964    -0.12200
C995        C  0.09392336  0.09378706  0.66526206     0.02000
C996        C  0.11403267  0.10573795  0.64236619    -0.00400
C997        C  0.10688608  0.08951670  0.61725175    -0.12100
C998        C  0.07969399  0.06238073  0.61431442     0.01800
H999        H  0.05171808  0.05709033  0.68016899     0.14800
H1000       H  0.12210478  0.09864186  0.59947432     0.14800
C1001       C  0.07268844  0.04792316  0.58737608     0.36500
C1002       C  0.10035911  0.10892298  0.69188809     0.36400
N1003       N  0.06752187  0.03670470  0.56559075    -0.43900
N1004       N  0.10541329  0.12103388  0.71323496    -0.43900
C1005       C  0.50293292  0.05211983  0.62854980    -0.00300
C1006       C  0.50283031  0.06732775  0.65276522    -0.12200
C1007       C  0.50491163  0.09549677  0.65101115     0.02000
C1008       C  0.50700231  0.10876364  0.62459023    -0.00400
C1009       C  0.01399697  0.09848675  0.60531575    -0.12100
C1010       C  0.01092857  0.06983759  0.60656981     0.01800
H1011       H  0.50110807  0.05710682  0.67306005     0.14800
H1012       H  0.01638966  0.10918030  0.58507065     0.14800
C1013       C  0.01147974  0.05551626  0.58083091     0.36500
C1014       C  0.50555727  0.11063030  0.67661633     0.36400
N1015       N  0.01160079  0.04400182  0.56010599    -0.43900
N1016       N  0.50622987  0.12272442  0.69721330    -0.43900
C1017       C  0.05274498  0.49443665  0.62496065    -0.00300
C1018       C  0.06123082  0.98380149  0.60624055    -0.12200
C1019       C  0.08846894  0.98469239  0.60122431     0.02000
C1020       C  0.10619085  0.49223693  0.61931823    -0.00400
C1021       C  0.09838231  0.49986765  0.64494857    -0.12100
C1022       C  0.07203670  0.50107370  0.64794966     0.01800
H1023       H  0.04544802  0.97845542  0.58924389     0.14800
H1024       H  0.11322480  0.50536114  0.66274824     0.14800
C1025       C  0.06561074  0.50938542  0.67479583     0.36500
C1026       C  0.09518489  0.97982283  0.57303413     0.36400
N1027       N  0.06096489  0.51626213  0.69645047    -0.43900
N1028       N  0.10042748  0.97618166  0.55030210    -0.43900
C1029       C  0.50311490  0.44293748  0.62760630    -0.00300
C1030       C  0.49808828  0.42628418  0.60307777    -0.12200
C1031       C  0.49770737  0.39888825  0.60347329     0.02000
C1032       C  0.50300538  0.38807905  0.62873488    -0.00400
C1033       C  0.00159562  0.40372018  0.65378994    -0.12100
C1034       C  0.99903830  0.42955106  0.65362729     0.01800
H1035       H  0.49468839  0.43485342  0.58358740     0.14800
H1036       H  0.00524902  0.39547308  0.67338664     0.14800
C1037       C  0.00034376  0.44401292  0.67982885     0.36500
C1038       C  0.49280657  0.38284818  0.57749239     0.36400
N1039       N  0.00097121  0.45530733  0.70091327    -0.43900
N1040       N  0.48884236  0.36996913  0.55667778    -0.43900
C1041       C  0.39067711  0.39226602  0.61672672    -0.00300
C1042       C  0.40559156  0.40963205  0.59302449    -0.12200
C1043       C  0.43393221  0.43578946  0.59547829     0.02000
C1044       C  0.44759853  0.44472419  0.62194156    -0.00400
C1045       C  0.43239394  0.42783013  0.64563118    -0.12100
C1046       C  0.40398740  0.40202143  0.64329711     0.01800
H1047       H  0.39556312  0.40228530  0.57256977     0.14800
H1048       H  0.44262179  0.43507079  0.66602530     0.14800
C1049       C  0.38842805  0.38645096  0.66860087     0.36500
C1050       C  0.44891677  0.45293761  0.57063225     0.36400
N1051       N  0.37570661  0.37393095  0.68876398    -0.43900
N1052       N  0.46108768  0.46683204  0.55083517    -0.43900
C1053       C  0.44880416  0.50087391  0.62945297    -0.00300
C1054       C  0.43336687  0.00265874  0.60864190    -0.12200
C1055       C  0.40639306  0.00306234  0.60846895     0.02000
C1056       C  0.39314471  0.49944142  0.63222934    -0.00400
C1057       C  0.40569421  0.49480318  0.65639429    -0.12100
C1058       C  0.43347578  0.49583225  0.65522291     0.01800
H1059       H  0.44565063  0.00596639  0.58926387     0.14800
H1060       H  0.39414209  0.49106654  0.67630055     0.14800
C1061       C  0.44615331  0.49212634  0.68072362     0.36500
C1062       C  0.39571230  0.00764207  0.58211346     0.36400
N1063       N  0.45646389  0.48921542  0.70109265    -0.43900
N1064       N  0.38709058  0.01129169  0.56102060    -0.43900
C1065       C  0.32996560  0.09141513  0.94256771    -0.00300
C1066       C  0.30448058  0.06238103  0.94037517    -0.12200
C1067       C  0.30464212  0.04040573  0.92313108     0.02000
C1068       C  0.33094047  0.04708274  0.90775789    -0.00400
C1069       C  0.35571569  0.07659722  0.90863821    -0.12100
C1070       C  0.35531816  0.09875566  0.92538651     0.01800
H1071       H  0.28462487  0.05634131  0.95298488     0.14800
H1072       H  0.37560805  0.08247213  0.89612426     0.14800
C1073       C  0.38109054  0.12893018  0.92396635     0.36500
C1074       C  0.27794369  0.01084267  0.92281378     0.36400
N1075       N  0.40165900  0.15314080  0.92266231    -0.43900
N1076       N  0.27155607  0.47918569  0.94724890    -0.43900
C1077       C  0.33167057  0.04534267  0.60496516    -0.00300
C1078       C  0.30322403  0.04070858  0.59740813    -0.12200
C1079       C  0.30040888  0.06100635  0.57976980     0.02000
C1080       C  0.32648407  0.08772972  0.57058940    -0.00400
C1081       C  0.35474671  0.09298225  0.57935463    -0.12100
C1082       C  0.35769752  0.07199094  0.59545205     0.01800
H1083       H  0.28298575  0.02018366  0.60391817     0.14800
H1084       H  0.37510955  0.11321476  0.57251912     0.14800
C1085       C  0.38801744  0.07815806  0.60014601     0.36500
C1086       C  0.27075963  0.05209574  0.56943744     0.36400
N1087       N  0.41243461  0.08309114  0.60291480    -0.43900
N1088       N  0.24691946  0.04428296  0.56091272    -0.43900
C1089       C  0.21460469  0.16932330  0.91018958    -0.00300
C1090       C  0.22597352  0.15008256  0.90472760    -0.12200
C1091       C  0.24852350  0.15059609  0.92150665     0.02000
C1092       C  0.25950273  0.17008705  0.94478161    -0.00400
C1093       C  0.24894499  0.19015846  0.94948460    -0.12100
C1094       C  0.22675735  0.18995282  0.93247668     0.01800
H1095       H  0.21733562  0.13473151  0.88718051     0.14800
H1096       H  0.25716416  0.20527159  0.96721777     0.14800
C1097       C  0.21552091  0.20983500  0.93942151     0.36500
C1098       C  0.26076729  0.13176438  0.91375060     0.36400
N1099       N  0.20635543  0.22565078  0.94489811    -0.43900
N1100       N  0.27077996  0.11691905  0.90728469    -0.43900
C1101       C  0.40641575  0.23776846  0.94250004    -0.00300
C1102       C  0.43732728  0.24860647  0.94598824    -0.12200
C1103       C  0.45873530  0.27102873  0.92839663     0.02000
C1104       C  0.44922077  0.28225196  0.90626201    -0.00400
C1105       C  0.41834800  0.27077634  0.90211053    -0.12100
C1106       C  0.39692693  0.24867793  0.91997136     0.01800
H1107       H  0.44491630  0.24080997  0.96352716     0.14800
H1108       H  0.41098759  0.27941163  0.88506031     0.14800
C1109       C  0.36543569  0.23738189  0.91456054     0.36500
C1110       C  0.49025939  0.28406653  0.93503440     0.36400
N1111       N  0.34015538  0.22817168  0.91028830    -0.43900
N1112       N  0.01434188  0.29531138  0.94565240    -0.43900
C1113       C  0.21883847  0.17046116  0.61313847    -0.00300
C1114       C  0.22189666  0.14498943  0.61020615    -0.12200
C1115       C  0.24271310  0.14473003  0.59157048     0.02000
C1116       C  0.26130290  0.17045164  0.57506225    -0.00400
C1117       C  0.25994901  0.19684925  0.57951983    -0.12100
C1118       C  0.23891693  0.19701881  0.59833345     0.01800
H1119       H  0.20727812  0.12473256  0.62198495     0.14800
H1120       H  0.27427981  0.21694864  0.56734059     0.14800
C1121       C  0.23703034  0.22397897  0.60074215     0.36500
C1122       C  0.24420572  0.11751499  0.58987185     0.36400
N1123       N  0.23490524  0.24520300  0.60329466    -0.43900
N1124       N  0.24526329  0.09562205  0.58854229    -0.43900
C1125       C  0.45361410  0.28158868  0.60351990    -0.00300
C1126       C  0.42618195  0.28097493  0.60034624    -0.12200
C1127       C  0.40289598  0.25901642  0.58422769     0.02000
C1128       C  0.40672994  0.23670438  0.57072157    -0.00400
C1129       C  0.43363876  0.23641789  0.57491675    -0.12100
C1130       C  0.45708056  0.25872929  0.59085258     0.01800
H1131       H  0.42309099  0.29828869  0.61004101     0.14800
H1132       H  0.43711853  0.21970192  0.56443265     0.14800
C1133       C  0.48525308  0.25908569  0.59194449     0.36500
C1134       C  0.37559949  0.26038196  0.58173032     0.36400
N1135       N  0.50816925  0.26004223  0.59303919    -0.43900
N1136       N  0.35387391  0.26168195  0.57964794    -0.43900
C1137       C  0.04944223  0.21856344  0.89519212    -0.00300
C1138       C  0.07776161  0.22118116  0.89849336    -0.12200
C1139       C  0.09869050  0.24125948  0.91762602     0.02000
C1140       C  0.09137319  0.25928754  0.93461494    -0.00400
C1141       C  0.06342771  0.25759044  0.93041178    -0.12100
C1142       C  0.04256833  0.23753981  0.91099175     0.01800
H1143       H  0.08355535  0.20708156  0.88619962     0.14800
H1144       H  0.05733419  0.27131099  0.94293603     0.14800
C1145       C  0.01363263  0.23557259  0.90897600     0.36500
C1146       C  0.12737627  0.24254201  0.91907671     0.36400
N1147       N  0.49780294  0.24282212  0.89444343    -0.43900
N1148       N  0.15031979  0.24350268  0.92016113    -0.43900
C1149       C  0.04774660  0.21309225  0.58772992    -0.00300
C1150       C  0.05976878  0.24364650  0.59482058    -0.12200
C1151       C  0.08002613  0.26690579  0.57674594     0.02000
C1152       C  0.08881681  0.25957144  0.55126360    -0.00400
C1153       C  0.07624523  0.22907955  0.54416615    -0.12100
C1154       C  0.05594062  0.20608053  0.56181398     0.01800
H1155       H  0.05378814  0.24935119  0.61471469     0.14800
H1156       H  0.08208973  0.22303164  0.52434931     0.14800
C1157       C  0.04314832  0.17546622  0.55205519     0.36500
C1158       C  0.09215508  0.29784618  0.58525713     0.36400
N1159       N  0.03302509  0.15107658  0.54390063    -0.43900
N1160       N  0.10182130  0.32264349  0.59206644    -0.43900
C1161       C  0.16532199  0.40342921  0.92976625    -0.00300
C1162       C  0.19268833  0.42865411  0.92099110    -0.12200
C1163       C  0.19323743  0.45121949  0.90403477     0.02000
C1164       C  0.16588429  0.44887217  0.89527805    -0.00400
C1165       C  0.13873702  0.42282942  0.90270252    -0.12100
C1166       C  0.13808122  0.40019685  0.91936784     0.01800
H1167       H  0.21390534  0.43148737  0.92828844     0.14800
H1168       H  0.11747729  0.42032836  0.89610837     0.14800
C1169       C  0.10879737  0.37453941  0.92586357     0.36500
C1170       C  0.22212850  0.47731908  0.89759381     0.36400
N1171       N  0.08525203  0.35408835  0.93094389    -0.43900
N1172       N  0.24504514  0.49854496  0.89235801    -0.43900
C1173       C  0.27941992  0.32152908  0.89881174    -0.00300
C1174       C  0.26769563  0.34017874  0.89206714    -0.12200
C1175       C  0.24555961  0.34078053  0.90887205     0.02000
C1176       C  0.23520809  0.32288882  0.93339785    -0.00400
C1177       C  0.24559343  0.30279508  0.93900049    -0.12100
C1178       C  0.26752909  0.30204186  0.92202683     0.01800
H1179       H  0.27640593  0.35487042  0.87392695     0.14800
H1180       H  0.23789809  0.28886318  0.95767205     0.14800
C1181       C  0.27950561  0.28322896  0.93042963     0.36500
C1182       C  0.23374532  0.35973251  0.90030074     0.36400
N1183       N  0.28924533  0.26836000  0.93749708    -0.43900
N1184       N  0.22414342  0.37475633  0.89329525    -0.43900
C1185       C  0.17478407  0.46072725  0.58059924    -0.00300
C1186       C  0.15845653  0.45168206  0.55567077    -0.12200
C1187       C  0.15825932  0.42948088  0.53885963     0.02000
C1188       C  0.17476901  0.41548051  0.54683618    -0.00400
C1189       C  0.19268881  0.42573532  0.57091629    -0.12100
C1190       C  0.19268648  0.44809659  0.58790790     0.01800
H1191       H  0.14540038  0.46186510  0.54935384     0.14800
H1192       H  0.20580560  0.41552462  0.57700900     0.14800
C1193       C  0.20972046  0.45626449  0.61343982     0.36500
C1194       C  0.14117281  0.42202369  0.51324239     0.36400
N1195       N  0.22331906  0.46274222  0.63396614    -0.43900
N1196       N  0.12508233  0.41595870  0.99762627    -0.43900
C1197       C  0.28702698  0.32918301  0.58172304    -0.00300
C1198       C  0.26841968  0.30308241  0.56623159    -0.12200
C1199       C  0.24450100  0.30076552  0.55009963     0.02000
C1200       C  0.23870306  0.32494026  0.54943451    -0.00400
C1201       C  0.25686098  0.35060883  0.56547163    -0.12100
C1202       C  0.28082236  0.35308275  0.58121979     0.01800
H1203       H  0.27346636  0.28501276  0.56566535     0.14800
H1204       H  0.25282769  0.36938632  0.56510329     0.14800
C1205       C  0.29898147  0.38093945  0.59607971     0.36500
C1206       C  0.22793947  0.27438727  0.53286371     0.36400
N1207       N  0.31371854  0.40352981  0.60752382    -0.43900
N1208       N  0.21489619  0.25326176  0.51898954    -0.43900
Fe1209     Fe  0.20581907  0.86963754  0.99232851     1.65800
Fe1210     Fe  0.12853183  0.83481281  0.49437028     1.73200
Fe1211     Fe  0.16323605  0.79343167  0.49791911     1.54400
O1212       O  0.19952054  0.80462389  0.47126814    -0.81800
O1213       O  0.10947010  0.80288135  0.02683162    -0.80100
O1214       O  0.21895656  0.85291378  0.46019910    -0.84300
O1215       O  0.22446113  0.85340160  0.02082950    -0.79200
O1216       O  0.13533423  0.77718190  0.46384188    -0.80900
O1217       O  0.14530896  0.86791786  0.02223060    -0.83700
C1218       C  0.21709574  0.82873723  0.03335663     0.97100
C1219       C  0.21679376  0.82752894  0.45647377     1.04500
O1220       O  0.16561292  0.83275540  0.49499747    -1.12700
O1221       O  0.14227926  0.86252870  0.45945312    -0.75100
O1222       O  0.19218148  0.88968868  0.46216468    -0.78600
O1223       O  0.19302021  0.80420164  0.02783722    -0.79300
C1224       C  0.16754162  0.88400886  0.45098830     0.96000
O1225       O  0.19517317  0.88919378  0.02508056    -0.77200
O1226       O  0.10670753  0.79808042  0.46776986    -0.82400
C1227       C  0.10972647  0.77889252  0.03265703     0.98600
C1228       C  0.11276211  0.77929074  0.45652418     1.04500
O1229       O  0.12793093  0.77244888  0.02100006    -0.78100
C1230       C  0.17054245  0.88770296  0.03199193     1.02800
Fe1231     Fe  0.36794331  0.66093544  0.50574064     1.65800
Fe1232     Fe  0.29186252  0.62631248  0.01262098     1.73200
Fe1233     Fe  0.33470045  0.70330088  0.01165393     1.61200
O1234       O  0.36773320  0.71966815  0.04154571    -0.81800
O1235       O  0.27372442  0.64068599  0.47692517    -0.80100
O1236       O  0.38989407  0.69217338  0.04306828    -0.84300
O1237       O  0.39038826  0.69740710  0.47866570    -0.79200
O1238       O  0.30325307  0.69219579  0.04341095    -0.80900
O1239       O  0.30310795  0.60551946  0.47620521    -0.83700
C1240       C  0.38521989  0.71680590  0.46759381     0.97100
C1241       C  0.38741557  0.71421734  0.05137946     1.04500
O1242       O  0.33192946  0.66356603  0.01182400    -1.12700
O1243       O  0.30321809  0.60552415  0.04341700    -0.75100
O1244       O  0.35303054  0.62758002  0.04120005    -0.78600
O1245       O  0.36250694  0.71906600  0.47442219    -0.79300
C1246       C  0.32779478  0.60791975  0.05139154     0.96000
O1247       O  0.35308785  0.63296501  0.47161659    -0.77200
O1248       O  0.27568429  0.64216825  0.04373577    -0.82400
C1249       C  0.27715702  0.66611155  0.47014849     0.98600
C1250       C  0.28187724  0.66768207  0.05325510     1.04500
O1251       O  0.29741649  0.69055679  0.48106539    -0.78100
C1252       C  0.32760071  0.61154679  0.46399959     1.02800
C1253       C  0.47456259  0.00360254  0.14232115     0.02200
C1254       C  0.46987339  0.97415751  0.14241547     0.02200
C1255       C  0.49460429  0.96954418  0.14333888     0.02200
C1256       C  0.02839088  0.99787388  0.13686949     0.02200
C1257       C  0.03169971  0.52177845  0.14384967     0.02200
C1258       C  0.00609465  0.52517815  0.14365472     0.02200
C1259       C  0.31577822  0.98904238  0.15569015     0.80100
N1260       N  0.31147826  0.50083861  0.14044568    -0.78200
C1261       C  0.33538095  0.52242675  0.12560986     0.82500
N1262       N  0.36171999  0.52244743  0.12581005    -0.78200
C1263       C  0.36614311  0.01094121  0.14012211     0.82600
N1264       N  0.34260952  0.98991481  0.15544208    -0.79900
C1265       C  0.19096666  0.52071975  0.13443985     0.80100
N1266       N  0.16237540  0.51449161  0.13889248    -0.78200
C1267       C  0.13694249  0.99247007  0.12507239     0.82500
N1268       N  0.14107293  0.97316005  0.10921985    -0.78200
C1269       C  0.16913045  0.97727565  0.10507191     0.82600
N1270       N  0.19345995  0.00167101  0.11675846    -0.79900
C1271       C  0.19456302  0.66583921  0.13125263     0.80100
N1272       N  0.16922839  0.63835508  0.13316500    -0.78200
C1273       C  0.14512794  0.63436880  0.14822128     0.82500
N1274       N  0.14632626  0.65834786  0.16123477    -0.78200
C1275       C  0.17127373  0.68620416  0.15937746     0.82600
N1276       N  0.19552745  0.68980227  0.14443816    -0.79900
C1277       C  0.48968132  0.66907659  0.14846937     0.80100
N1278       N  0.50861572  0.69182144  0.13088682    -0.78200
C1279       C  0.02731656  0.68695551  0.11106595     0.82500
N1280       N  0.03133969  0.66305109  0.11571892    -0.78200
C1281       C  0.51774439  0.64501134  0.14076111     0.82600
N1282       N  0.49476339  0.64609438  0.15334305    -0.79900
C1283       C  0.30733906  0.83707616  0.11172738     0.80100
N1284       N  0.33133906  0.86463319  0.11743762    -0.78200
C1285       C  0.35336509  0.86762271  0.13471860     0.82500
N1286       N  0.35205090  0.84278272  0.14563908    -0.78200
C1287       C  0.32912512  0.81479716  0.13947811     0.82600
N1288       N  0.30644253  0.81195361  0.12260521    -0.79900
C1289       C  0.02366732  0.83347160  0.14938489     0.80100
N1290       N  0.02284202  0.85950008  0.14882926    -0.78200
C1291       C  0.49461255  0.85816619  0.14017791     0.82500
N1292       N  0.47414106  0.83403261  0.12596174    -0.78200
C1293       C  0.47657952  0.80926972  0.12259128     0.82600
N1294       N  0.50075990  0.80893551  0.13414689    -0.79900
Fe1295     Fe  0.33590885  0.63045176  0.24453582     1.65800
Fe1296     Fe  0.29458552  0.66589121  0.24394826     1.73200
Fe1297     Fe  0.37147353  0.70758899  0.24189314     1.54400
O1298       O  0.39162293  0.69653460  0.27351703    -0.81800
O1299       O  0.30606282  0.69793081  0.21280439    -0.80100
O1300       O  0.36743463  0.64640650  0.27623394    -0.84300
O1301       O  0.36986109  0.64528163  0.21535564    -0.79200
O1302       O  0.35652435  0.72637676  0.27121419    -0.80900
O1303       O  0.27788129  0.63330683  0.21351470    -0.83700
C1304       C  0.39040896  0.67031922  0.20571400     0.97100
C1305       C  0.38827898  0.67229599  0.28403919     1.04500
O1306       O  0.33401702  0.66798777  0.24351105    -1.12700
O1307       O  0.27715305  0.63365090  0.27510760    -0.75100
O1308       O  0.30235343  0.60922248  0.27432478    -0.78600
O1309       O  0.39231870  0.69503056  0.21240509    -0.79300
C1310       C  0.28128242  0.61269051  0.28379069     0.96000
O1311       O  0.30494013  0.61054804  0.21252804    -0.77200
O1312       O  0.30655525  0.69858526  0.27429318    -0.82400
C1313       C  0.33038540  0.71870941  0.20212593     0.98600
C1314       C  0.33147074  0.72145970  0.28100331     1.04500
O1315       O  0.35600795  0.72342566  0.20997291    -0.78100
C1316       C  0.28348805  0.61373783  0.20358049     1.02800
Fe1317     Fe  0.13165198  0.79640026  0.26046487     1.65800
Fe1318     Fe  0.20864014  0.83920351  0.26119208     1.73200
Fe1319     Fe  0.16620126  0.87319533  0.26042248     1.54400
O1320       O  0.13773202  0.85945594  0.22634353    -0.81800
O1321       O  0.22563116  0.87355007  0.29022675    -0.80100
O1322       O  0.11075471  0.80947141  0.23099899    -0.84300
O1323       O  0.11145809  0.80678067  0.29268942    -0.79200
O1324       O  0.20216190  0.89631058  0.23343617    -0.80900
O1325       O  0.19705730  0.80864993  0.29369579    -0.83700
C1326       C  0.11158947  0.83084387  0.29875217     0.97100
C1327       C  0.11568190  0.83393931  0.21950155     1.04500
O1328       O  0.16882599  0.83619616  0.26064575    -1.12700
O1329       O  0.19698850  0.80480336  0.23278826    -0.75100
O1330       O  0.14718127  0.78057059  0.22855136    -0.78600
O1331       O  0.12994468  0.85588822  0.28738099    -0.79300
C1332       C  0.17279243  0.78397330  0.22226702     0.96000
O1333       O  0.14739739  0.77814465  0.28992175    -0.77200
O1334       O  0.22534920  0.87001610  0.22852303    -0.82400
C1335       C  0.21759870  0.89056973  0.30197067     0.98600
C1336       C  0.22226950  0.89231780  0.22224845     1.04500
O1337       O  0.19414082  0.89098846  0.29463188    -0.78100
C1338       C  0.17261267  0.78513389  0.30073872     1.02800
C1339       C  0.47490830  0.50353332  0.36851127     0.02200
C1340       C  0.46982359  0.97554320  0.36009450     0.02200
C1341       C  0.99580022  0.97297807  0.35674963     0.02200
C1342       C  0.02327281  0.49509224  0.35172821     0.02200
C1343       C  0.02722063  0.52451719  0.35212530     0.02200
C1344       C  0.00152584  0.52792504  0.35260951     0.02200
C1345       C  0.18603514  0.51994377  0.35300009     0.80100
N1346       N  0.15782787  0.51533595  0.34991492    -0.78200
C1347       C  0.13372555  0.49211168  0.36274143     0.82500
N1348       N  0.13719991  0.97059727  0.37717545    -0.78200
C1349       C  0.16454553  0.97238099  0.37796826     0.82600
N1350       N  0.18997762  0.50025565  0.36897410    -0.79900
C1351       C  0.31112093  0.98164268  0.37025191     0.80100
N1352       N  0.33878549  0.98586596  0.36430804    -0.78200
C1353       C  0.36500456  0.50958241  0.37084687     0.82500
N1354       N  0.36173117  0.53049730  0.38541973    -0.78200
C1355       C  0.33400269  0.52773807  0.38801784     0.82600
N1356       N  0.30958560  0.50364957  0.37642152    -0.79900
C1357       C  0.48196662  0.67140065  0.35053780     0.80100
N1358       N  0.50467450  0.69629206  0.36306873    -0.78200
C1359       C  0.02532776  0.69138643  0.37953707     0.82500
N1360       N  0.02607284  0.66544114  0.37714497    -0.78200
C1361       C  0.50602009  0.64411501  0.36223747     0.82600
N1362       N  0.48313710  0.64562850  0.35006557    -0.79900
C1363       C  0.18814279  0.66464195  0.39404885     0.80100
N1364       N  0.16319101  0.63742366  0.38877562    -0.78200
C1365       C  0.14102840  0.63532772  0.37182980     0.82500
N1366       N  0.14425506  0.66079419  0.35982997    -0.78200
C1367       C  0.16917784  0.68804847  0.36458620     0.82600
N1368       N  0.19110340  0.68991979  0.38171792    -0.79900
C1369       C  0.01922933  0.83452752  0.36597055     0.80100
N1370       N  0.01456098  0.85780764  0.36086728    -0.78200
C1371       C  0.99218383  0.85976977  0.37383109     0.82500
N1372       N  0.47182837  0.83534730  0.39179942    -0.78200
C1373       C  0.47461953  0.81054268  0.39509905     0.82600
N1374       N  0.00047868  0.81230021  0.38398764    -0.79900
C1375       C  0.30587539  0.83145768  0.38071867     0.80100
N1376       N  0.33094225  0.85929507  0.37981732    -0.78200
C1377       C  0.35527179  0.86417654  0.36448711     0.82500
N1378       N  0.35420293  0.84108806  0.34988342    -0.78200
C1379       C  0.32937502  0.81304434  0.35064811     0.82600
N1380       N  0.30516325  0.80835148  0.36624240    -0.79900
C1381       C  0.00500824  0.55848612  0.35379057    -0.00300
C1382       C  0.49424225  0.56735524  0.34260616    -0.12200
C1383       C  0.49510621  0.59486112  0.34040672     0.02000
C1384       C  0.50599275  0.61534457  0.36291628    -0.00400
C1385       C  0.99659952  0.59735654  0.33446397    -0.12100
C1386       C  0.99585986  0.56992345  0.33151685     0.01800
H1387       H  0.48590691  0.55167921  0.32514661     0.14800
H1388       H  0.98949390  0.60586725  0.31721797     0.14800
C1389       C  0.98565352  0.55392185  0.30541518     0.36500
C1390       C  0.48619752  0.60207080  0.31429317     0.36400
N1391       N  0.97757333  0.54114185  0.28446348    -0.43900
N1392       N  0.47928507  0.60790773  0.29327210    -0.43900
C1393       C  0.05801799  0.55170666  0.35564730    -0.00300
C1394       C  0.07220152  0.55645594  0.38167379    -0.12200
C1395       C  0.09940791  0.58309180  0.38728465     0.02000
C1396       C  0.11326199  0.60570539  0.36647807    -0.00400
C1397       C  0.09941935  0.60054209  0.34019992    -0.12100
C1398       C  0.07215010  0.57398568  0.33465902     0.01800
H1399       H  0.06126666  0.53976017  0.39809305     0.14800
H1400       H  0.10982891  0.61750820  0.32390899     0.14800
C1401       C  0.05922565  0.57041831  0.30727332     0.36500
C1402       C  0.11130507  0.58749501  0.41522310     0.36400
N1403       N  0.04946174  0.56801701  0.28507597    -0.43900
N1404       N  0.12077280  0.59116688  0.43766463    -0.43900
C1405       C  0.38310901  0.89411914  0.36375398    -0.00300
C1406       C  0.39786391  0.90522790  0.33798961    -0.12200
C1407       C  0.42543783  0.93229714  0.33640367     0.02000
C1408       C  0.43928277  0.94816517  0.36099515    -0.00400
C1409       C  0.42421923  0.93771543  0.38668562    -0.12100
C1410       C  0.39615270  0.91103575  0.38822873     0.01800
H1411       H  0.38771759  0.89275411  0.31899678     0.14800
H1412       H  0.43468850  0.95017134  0.40559332     0.14800
C1413       C  0.38194436  0.90084253  0.41527265     0.36500
C1414       C  0.43884496  0.94382948  0.30930540     0.36400
N1415       N  0.37044975  0.89267187  0.43691265    -0.43900
N1416       N  0.44940535  0.95341655  0.28759641    -0.43900
C1417       C  0.39427010  0.51034518  0.36936480    -0.00300
C1418       C  0.41158939  0.51651903  0.39366137    -0.12200
C1419       C  0.43714349  0.51332246  0.39409682     0.02000
C1420       C  0.44663126  0.50515401  0.36956816    -0.00400
C1421       C  0.42674696  0.00263031  0.34003098    -0.12100
C1422       C  0.40096995  0.00501155  0.34317668     0.01800
H1423       H  0.40428742  0.52234721  0.41273588     0.14800
H1424       H  0.43199045  0.99686956  0.31988781     0.14800
C1425       C  0.38293648  0.00106444  0.31878731     0.36500
C1426       C  0.45217499  0.51679027  0.42034459     0.36400
N1427       N  0.36858188  0.99803214  0.29920278    -0.43900
N1428       N  0.46372526  0.51912792  0.44162056    -0.43900
C1429       C  0.10360688  0.48903624  0.35953788    -0.00300
C1430       C  0.09815622  0.00142078  0.33746270    -0.12200
C1431       C  0.07206170  0.00321690  0.33510833     0.02000
C1432       C  0.05013232  0.49130470  0.35333406    -0.00400
C1433       C  0.05566395  0.48037365  0.37816259    -0.12100
C1434       C  0.08190291  0.47875954  0.38132357     0.01800
H1435       H  0.11370786  0.00847393  0.31994227     0.14800
H1436       H  0.03972857  0.47376162  0.39538442     0.14800
C1437       C  0.08645771  0.46778659  0.40755383     0.36500
C1438       C  0.06623182  0.01311760  0.30887993     0.36400
N1439       N  0.08999488  0.45880566  0.42852891    -0.43900
N1440       N  0.06157940  0.02064850  0.28760901    -0.43900
C1441       C  0.99179949  0.94224927  0.35972970    -0.00300
C1442       C  0.98348102  0.92810316  0.38599068    -0.12200
C1443       C  0.98200312  0.90053260  0.39080547     0.02000
C1444       C  0.98936950  0.88674593  0.36905910    -0.00400
C1445       C  0.49733447  0.90055029  0.34578513    -0.12100
C1446       C  0.49813913  0.92781376  0.34114114     0.01800
H1447       H  0.97917055  0.93926344  0.40311012     0.14800
H1448       H  0.50244138  0.89006359  0.32859600     0.14800
C1449       C  0.50443124  0.94029701  0.31326085     0.36500
C1450       C  0.97476960  0.88805828  0.41870922     0.36400
N1451       N  0.50915442  0.94981720  0.29071091    -0.43900
N1452       N  0.96894972  0.87809357  0.44109203    -0.43900
C1453       C  0.17230671  0.71529874  0.35073569    -0.00300
C1454       C  0.15000362  0.72299191  0.35510072    -0.12200
C1455       C  0.15063288  0.74695509  0.34037024     0.02000
C1456       C  0.17382061  0.76359341  0.32068119    -0.00400
C1457       C  0.19676894  0.75661953  0.31721312    -0.12100
C1458       C  0.19591966  0.73243981  0.33165262     0.01800
H1459       H  0.13173461  0.70986582  0.36969438     0.14800
H1460       H  0.21430319  0.76872619  0.30167625     0.14800
C1461       C  0.21742137  0.72347072  0.32400166     0.36500
C1462       C  0.12744504  0.75424839  0.34591620     0.36400
N1463       N  0.23421297  0.71592116  0.31721787    -0.43900
N1464       N  0.10908608  0.76041734  0.35035278    -0.43900
C1465       C  0.04433435  0.83350464  0.35144570    -0.00300
C1466       C  0.04157631  0.80552047  0.34511908    -0.12200
C1467       C  0.06334655  0.80366874  0.32873357     0.02000
C1468       C  0.08917886  0.83041863  0.31903740    -0.00400
C1469       C  0.09260649  0.85831663  0.32699244    -0.12100
C1470       C  0.07048263  0.86013173  0.34236409     0.01800
H1471       H  0.02154950  0.78487273  0.35179516     0.14800
H1472       H  0.11231387  0.87920888  0.32026186     0.14800
C1473       C  0.07511622  0.88985404  0.34769085     0.36500
C1474       C  0.05744979  0.77400557  0.32111014     0.36400
N1475       N  0.07856783  0.91359882  0.35167790    -0.43900
N1476       N  0.05237894  0.75011506  0.31498975    -0.43900
C1477       C  0.23753644  0.91138620  0.32420031    -0.00300
C1478       C  0.26067186  0.90706025  0.33444903    -0.12200
C1479       C  0.28364191  0.92865775  0.35109583     0.02000
C1480       C  0.28411770  0.95566904  0.35777018    -0.00400
C1481       C  0.25943591  0.95868500  0.35016303    -0.12100
C1482       C  0.23613948  0.93682303  0.33365942     0.01800
H1483       H  0.26149073  0.88707682  0.32871968     0.14800
H1484       H  0.25907273  0.97892407  0.35584598     0.14800
C1485       C  0.21198675  0.94197014  0.32601101     0.36500
C1486       C  0.30658695  0.92251469  0.36078813     0.36400
N1487       N  0.19260465  0.94614162  0.32008891    -0.43900
N1488       N  0.32503972  0.91773805  0.36857363    -0.43900
C1489       C  0.41055804  0.67379193  0.30500199    -0.00300
C1490       C  0.40590951  0.64663723  0.31671403    -0.12200
C1491       C  0.42812210  0.64554162  0.33255143     0.02000
C1492       C  0.45623902  0.67212069  0.33702591    -0.00400
C1493       C  0.46011205  0.69966254  0.32726686    -0.12100
C1494       C  0.43770578  0.70080372  0.31153968     0.01800
H1495       H  0.38505259  0.62576656  0.31286976     0.14800
H1496       H  0.48117782  0.72035669  0.33103718     0.14800
C1497       C  0.44386631  0.73005228  0.30197471     0.36500
C1498       C  0.42113003  0.61658260  0.34380947     0.36400
N1499       N  0.44887829  0.75357434  0.29448664    -0.43900
N1500       N  0.41561343  0.59338854  0.35273367    -0.43900
C1501       C  0.25933404  0.59064507  0.30457407    -0.00300
C1502       C  0.23329836  0.59203816  0.31058111    -0.12200
C1503       C  0.20990466  0.57020411  0.32702456     0.02000
C1504       C  0.21183313  0.54558700  0.33800235    -0.00400
C1505       C  0.23857226  0.54499807  0.33341070    -0.12100
C1506       C  0.26221983  0.56715717  0.31704256     0.01800
H1507       H  0.23065151  0.61003171  0.30180748     0.14800
H1508       H  0.24081747  0.52670124  0.34204543     0.14800
C1509       C  0.28894540  0.56492970  0.31361953     0.36500
C1510       C  0.18438202  0.57417337  0.33208029     0.36400
N1511       N  0.31029638  0.56298287  0.31115839    -0.43900
N1512       N  0.16404194  0.57754190  0.33594160    -0.43900
C1513       C  0.33142781  0.74446493  0.29969918    -0.00300
C1514       C  0.30998247  0.73576030  0.32131976    -0.12200
C1515       C  0.30875449  0.75734116  0.33844808     0.02000
C1516       C  0.32914281  0.78849857  0.33379710    -0.00400
C1517       C  0.35041680  0.79693249  0.31202778    -0.12100
C1518       C  0.35164894  0.77553246  0.29505697     0.01800
H1519       H  0.29418758  0.71196696  0.32494319     0.14800
H1520       H  0.36597193  0.82061011  0.30764469     0.14800
C1521       C  0.37279640  0.78640717  0.27191904     0.36500
C1522       C  0.28664002  0.74664048  0.36071930     0.36400
N1523       N  0.38961470  0.79511120  0.25332228    -0.43900
N1524       N  0.26868385  0.73787707  0.37837495    -0.43900
C1525       C  0.09338260  0.83264636  0.19885148    -0.00300
C1526       C  0.06300843  0.81000948  0.20225868    -0.12200
C1527       C  0.04023020  0.80965215  0.18604648     0.02000
C1528       C  0.04749272  0.83205113  0.16553909    -0.00400
C1529       C  0.07787112  0.85430866  0.16146785    -0.12100
C1530       C  0.10079104  0.85468717  0.17770906     0.01800
H1531       H  0.05673837  0.79324439  0.21864047     0.14800
H1532       H  0.08369838  0.87149268  0.14557992     0.14800
C1533       C  0.13164817  0.87754424  0.17182377     0.36500
C1534       C  0.00932572  0.78750163  0.19252311     0.36400
N1535       N  0.15636176  0.89577601  0.16695218    -0.43900
N1536       N  0.98456475  0.76996060  0.19798685    -0.43900
C1537       C  0.32931444  0.73996626  0.18127294    -0.00300
C1538       C  0.35650341  0.76619934  0.17435671    -0.12200
C1539       C  0.35704494  0.79003023  0.15978926     0.02000
C1540       C  0.32972115  0.78809163  0.15117465    -0.00400
C1541       C  0.30265605  0.76075405  0.15563116    -0.12100
C1542       C  0.30215433  0.73686504  0.17056586     0.01800
H1543       H  0.37771980  0.76898020  0.18161056     0.14800
H1544       H  0.28157297  0.75849588  0.14864153     0.14800
C1545       C  0.27330245  0.70994488  0.17511482     0.36500
C1546       C  0.38629694  0.81649018  0.15504932     0.36400
N1547       N  0.25015533  0.68839984  0.17880859    -0.43900
N1548       N  0.40980332  0.83771434  0.15181623    -0.43900
C1549       C  0.46304565  0.66859942  0.16147968    -0.00300
C1550       C  0.46206017  0.69535785  0.16249897    -0.12200
C1551       C  0.43849427  0.69672930  0.17581216     0.02000
C1552       C  0.41420638  0.67029265  0.18780230    -0.00400
C1553       C  0.41450771  0.64317496  0.18559697    -0.12100
C1554       C  0.43860193  0.64209900  0.17333177     0.01800
H1555       H  0.48069385  0.71607927  0.15357046     0.14800
H1556       H  0.39630119  0.62253217  0.19476666     0.14800
C1557       C  0.43742782  0.61339351  0.17417858     0.36500
C1558       C  0.44076268  0.72585136  0.17762511     0.36400
N1559       N  0.43630024  0.59033906  0.17521197    -0.43900
N1560       N  0.44301000  0.74936955  0.17919008    -0.43900
C1561       C  0.17176785  0.71237130  0.17338485    -0.00300
C1562       C  0.19941970  0.73685533  0.18202238    -0.12200
C1563       C  0.20076452  0.76095727  0.19709053     0.02000
C1564       C  0.17390292  0.76137597  0.20327148    -0.00400
C1565       C  0.14648815  0.73747425  0.19338019    -0.12100
C1566       C  0.14508740  0.71313462  0.17899172     0.01800
H1567       H  0.22009308  0.73666631  0.17793585     0.14800
H1568       H  0.12559091  0.73712879  0.19765865     0.14800
C1569       C  0.11566353  0.68930842  0.17048782     0.36500
C1570       C  0.23000217  0.78402922  0.20675557     0.36400
N1571       N  0.09200535  0.67019034  0.16395734    -0.43900
N1572       N  0.25349053  0.80228985  0.21458200    -0.43900
C1573       C  0.21618523  0.54719254  0.14885641    -0.00300
C1574       C  0.24514133  0.55062103  0.14952593    -0.12200
C1575       C  0.26831334  0.57338121  0.16561535     0.02000
C1576       C  0.26246910  0.59275974  0.18206377    -0.00400
C1577       C  0.23443284  0.59088927  0.17939001    -0.12100
C1578       C  0.21163269  0.56889985  0.16301793     0.01800
H1579       H  0.24962027  0.53518613  0.13794898     0.14800
H1580       H  0.22968824  0.60617238  0.19094207     0.14800
C1581       C  0.18390886  0.56963946  0.16176439     0.36500
C1582       C  0.29784871  0.57659286  0.16446923     0.36400
N1583       N  0.16187856  0.57052544  0.16101684    -0.43900
N1584       N  0.32153691  0.57918980  0.16354452    -0.43900
C1585       C  0.29000478  0.96434552  0.17111402    -0.00300
C1586       C  0.28514704  0.93501701  0.16867391    -0.12200
C1587       C  0.26208327  0.91076232  0.18354032     0.02000
C1588       C  0.24396800  0.91585662  0.20250296    -0.00400
C1589       C  0.24836391  0.94516664  0.20436091    -0.12100
C1590       C  0.27098455  0.96922661  0.18891689     0.01800
H1591       H  0.29963166  0.93102624  0.15500438     0.14800
H1592       H  0.23485869  0.94971607  0.21888413     0.14800
C1593       C  0.27557556  0.99891184  0.19374756     0.36500
C1594       C  0.25706750  0.88093950  0.17813549     0.36400
N1595       N  0.27239974  0.51356189  0.18897591    -0.43900
N1596       N  0.25296789  0.85708706  0.17337983    -0.43900
C1597       C  0.06213315  0.54928994  0.14523335    -0.00300
C1598       C  0.07033228  0.56623051  0.16993133    -0.12200
C1599       C  0.09731770  0.59380867  0.17162892     0.02000
C1600       C  0.11702306  0.60465406  0.14834111    -0.00400
C1601       C  0.10922343  0.58717057  0.12393020    -0.12100
C1602       C  0.08187656  0.55995821  0.12204796     0.01800
H1603       H  0.05522913  0.55804201  0.18782902     0.14800
H1604       H  0.12399376  0.59537431  0.10579972     0.14800
C1605       C  0.07408975  0.54433872  0.09566941     0.36500
C1606       C  0.10422009  0.61020299  0.19759679     0.36400
N1607       N  0.06815337  0.53209400  0.07436524    -0.43900
N1608       N  0.10960538  0.62330374  0.21842409    -0.43900
C1609       C  0.51020849  0.55841924  0.14295724    -0.00300
C1610       C  0.51060338  0.57246182  0.16815659    -0.12200
C1611       C  0.51459694  0.60150086  0.16816572     0.02000
C1612       C  0.51875754  0.61695806  0.14259222    -0.00400
C1613       C  0.01645681  0.59840887  0.11332556    -0.12100
C1614       C  0.01355692  0.56986000  0.11508359     0.01800
H1615       H  0.50751809  0.56058292  0.18774906     0.14800
H1616       H  0.01819749  0.60841529  0.09298250     0.14800
C1617       C  0.01296866  0.55470132  0.08953741     0.36500
C1618       C  0.51441127  0.61493999  0.19459430     0.36400
N1619       N  0.01211640  0.54245690  0.06899313    -0.43900
N1620       N  0.51424806  0.62562085  0.21582490    -0.43900
C1621       C  0.05516561  0.99422586  0.13505344    -0.00300
C1622       C  0.05977782  0.47823442  0.11493820    -0.12200
C1623       C  0.08593466  0.47689626  0.11023552     0.02000
C1624       C  0.10717074  0.98975450  0.12850597    -0.00400
C1625       C  0.10046183  0.99813605  0.15429308    -0.12100
C1626       C  0.07469395  0.00034717  0.15776306     0.01800
H1627       H  0.04355375  0.47214476  0.09823398     0.14800
H1628       H  0.11579946  0.00361315  0.17168354     0.14800
C1629       C  0.06906239  0.00916558  0.18470865     0.36500
C1630       C  0.08978719  0.46687538  0.08317785     0.36400
N1631       N  0.06489894  0.01633381  0.20642169    -0.43900
N1632       N  0.09225929  0.45861979  0.06137302    -0.43900
C1633       C  0.48978026  0.93860057  0.14320610    -0.00300
C1634       C  0.48880233  0.92529626  0.11743593    -0.12200
C1635       C  0.49026188  0.89897410  0.11613620     0.02000
C1636       C  0.49218318  0.88535321  0.14104685    -0.00400
C1637       C  0.00250199  0.90371480  0.16048391    -0.12100
C1638       C  0.00056490  0.92986390  0.16157360     0.01800
H1639       H  0.48874844  0.93651205  0.09826236     0.14800
H1640       H  0.00650726  0.89486812  0.17949769     0.14800
C1641       C  0.00282405  0.94382300  0.18829311     0.36500
C1642       C  0.49194692  0.88761157  0.08898672     0.36400
N1643       N  0.00415026  0.95477587  0.20974768    -0.43900
N1644       N  0.49328338  0.87840376  0.06729400    -0.43900
C1645       C  0.38116557  0.89685528  0.13756008    -0.00300
C1646       C  0.39680156  0.91141666  0.11304367    -0.12200
C1647       C  0.42564913  0.93668086  0.11428344     0.02000
C1648       C  0.43894713  0.94800959  0.14044109    -0.00400
C1649       C  0.42291299  0.93424407  0.16502985    -0.12100
C1650       C  0.39414786  0.90863559  0.16378999     0.01800
H1651       H  0.38702767  0.90217588  0.09285943     0.14800
H1652       H  0.43307938  0.94329038  0.18512590     0.14800
C1653       C  0.37828313  0.89518366  0.18958342     0.36500
C1654       C  0.44157759  0.94996291  0.08847761     0.36400
N1655       N  0.36566056  0.88469307  0.21037036    -0.43900
N1656       N  0.45434214  0.96048421  0.06776063    -0.43900
C1657       C  0.44822468  0.00819198  0.14195085    -0.00300
C1658       C  0.44008503  0.51126979  0.11851984    -0.12200
C1659       C  0.41255409  0.51039292  0.11709450     0.02000
C1660       C  0.39508029  0.01135221  0.14010052    -0.00400
C1661       C  0.40777273  0.01078202  0.16582086    -0.12100
C1662       C  0.43421746  0.00936159  0.16691957     0.01800
H1663       H  0.45332345  0.51537239  0.09972955     0.14800
H1664       H  0.39685223  0.01125520  0.18513016     0.14800
C1665       C  0.44634047  0.00864833  0.19385630     0.36500
C1666       C  0.40308008  0.51526043  0.09019395     0.36400
N1667       N  0.45608480  0.00817048  0.21546495    -0.43900
N1668       N  0.39563635  0.51920127  0.06858262    -0.43900
C1669       C  0.32680857  0.59155780  0.44118343    -0.00300
C1670       C  0.30460424  0.56086474  0.44221162    -0.12200
C1671       C  0.30615414  0.53991765  0.42463774     0.02000
C1672       C  0.33004460  0.54958086  0.40512327    -0.00400
C1673       C  0.35120456  0.58049022  0.40286495    -0.12100
C1674       C  0.34970237  0.60149070  0.42048684     0.01800
H1675       H  0.28702637  0.55283017  0.45803162     0.14800
H1676       H  0.36919508  0.58822405  0.38751713     0.14800
C1677       C  0.37196214  0.63303698  0.41689052     0.36500
C1678       C  0.28458532  0.50833313  0.42895908     0.36400
N1679       N  0.38972013  0.65833186  0.41410108    -0.43900
N1680       N  0.28235542  0.98185695  0.45423914    -0.43900
C1681       C  0.33298276  0.54554447  0.10881287    -0.00300
C1682       C  0.30467464  0.53926296  0.09897391    -0.12200
C1683       C  0.30192920  0.55915747  0.08068259     0.02000
C1684       C  0.32782641  0.58681725  0.07286448    -0.00400
C1685       C  0.35573679  0.59367661  0.08411394    -0.12100
C1686       C  0.35872603  0.57334108  0.10113275     0.01800
H1687       H  0.28474943  0.51799755  0.10437364     0.14800
H1688       H  0.37591086  0.61472984  0.07865743     0.14800
C1689       C  0.38899405  0.58156495  0.10903862     0.36500
C1690       C  0.27263426  0.54932257  0.06889845     0.36400
N1691       N  0.41343840  0.58809302  0.11447777    -0.43900
N1692       N  0.24910909  0.54101940  0.05934774    -0.43900
C1693       C  0.21196045  0.66643426  0.41293785    -0.00300
C1694       C  0.22111595  0.64506963  0.41008074    -0.12200
C1695       C  0.24292071  0.64521867  0.42771670     0.02000
C1696       C  0.25597908  0.66692698  0.44924996    -0.00400
C1697       C  0.24710625  0.68863951  0.45182020    -0.12100
C1698       C  0.22525513  0.68846470  0.43408482     0.01800
H1699       H  0.21131471  0.62821611  0.39373854     0.14800
H1700       H  0.25648523  0.70521254  0.46842311     0.14800
C1701       C  0.21544200  0.70986770  0.43919978     0.36500
C1702       C  0.25202686  0.62326120  0.42264076     0.36400
N1703       N  0.20735113  0.72682316  0.44338851    -0.43900
N1704       N  0.25938193  0.60572456  0.41850575    -0.43900
C1705       C  0.40753964  0.73861263  0.44699808    -0.00300
C1706       C  0.43842914  0.74946576  0.45125323    -0.12200
C1707       C  0.46058656  0.77242438  0.43433306     0.02000
C1708       C  0.45205518  0.78480474  0.41232654    -0.00400
C1709       C  0.42122821  0.77334043  0.40747018    -0.12100
C1710       C  0.39905343  0.75033312  0.42434192     0.01800
H1711       H  0.44539735  0.74090576  0.46866861     0.14800
H1712       H  0.41442742  0.78242453  0.39036401     0.14800
C1713       C  0.36777187  0.73854380  0.41745605     0.36500
C1714       C  0.49190100  0.78438902  0.44123950     0.36400
N1715       N  0.34268253  0.72888488  0.41187420    -0.43900
N1716       N  0.02067144  0.80063072  0.45123783    -0.43900
C1717       C  0.22013368  0.66894070  0.11405746    -0.00300
C1718       C  0.22435543  0.64407946  0.11242191    -0.12200
C1719       C  0.24531427  0.64379318  0.09394038     0.02000
C1720       C  0.26258475  0.66876465  0.07606413    -0.00400
C1721       C  0.25968256  0.69448415  0.07890271    -0.12100
C1722       C  0.23868459  0.69471197  0.09767281     0.01800
H1723       H  0.21081399  0.62442905  0.12542850     0.14800
H1724       H  0.27280562  0.71394934  0.06557144     0.14800
C1725       C  0.23498403  0.72067526  0.09843448     0.36500
C1726       C  0.24852912  0.61746914  0.09407777     0.36400
N1727       N  0.23100678  0.74084819  0.09982094    -0.43900
N1728       N  0.25102494  0.59633435  0.09431669    -0.43900
C1729       C  0.45302283  0.78385261  0.10556999    -0.00300
C1730       C  0.45277232  0.75640001  0.10311456    -0.12200
C1731       C  0.43114911  0.73261582  0.08658069     0.02000
C1732       C  0.40917004  0.73612627  0.07196709    -0.00400
C1733       C  0.40898244  0.76304776  0.07530327    -0.12100
C1734       C  0.43020312  0.78657886  0.09136394     0.01800
H1735       H  0.46948445  0.75342530  0.11407521     0.14800
H1736       H  0.39243616  0.76644391  0.06446228     0.14800
C1737       C  0.42743757  0.81321241  0.09150473     0.36500
C1738       C  0.43191859  0.70495180  0.08545411     0.36400
N1739       N  0.42438650  0.83402099  0.09096595    -0.43900
N1740       N  0.43252108  0.68275667  0.08474309    -0.43900
C1741       C  0.04841896  0.71611637  0.39716116    -0.00300
C1742       C  0.07526782  0.71616482  0.40268554    -0.12200
C1743       C  0.09696898  0.73696345  0.42088836     0.02000
C1744       C  0.09201831  0.75851028  0.43464998    -0.00400
C1745       C  0.06566635  0.75924077  0.42824549    -0.12100
C1746       C  0.04404268  0.73848630  0.40978232     0.01800
H1747       H  0.07945157  0.69962562  0.39273539     0.14800
H1748       H  0.06139759  0.77567862  0.43825907     0.14800
C1749       C  0.01706661  0.73994591  0.40536268     0.36500
C1750       C  0.12385308  0.73516744  0.42488059     0.36400
N1751       N  0.50103964  0.74816449  0.39310572    -0.43900
N1752       N  0.14534675  0.73363945  0.42795905    -0.43900
C1753       C  0.04698738  0.71067261  0.09045661    -0.00300
C1754       C  0.05864429  0.74136575  0.09660222    -0.12200
C1755       C  0.07836998  0.76418017  0.07789023     0.02000
C1756       C  0.08741582  0.75638324  0.05280734    -0.00400
C1757       C  0.07513727  0.72567304  0.04653956    -0.12100
C1758       C  0.05484366  0.70302120  0.06469619     0.01800
H1759       H  0.05272350  0.74756306  0.11629116     0.14800
H1760       H  0.08105466  0.71925052  0.02696466     0.14800
C1761       C  0.04120585  0.67208646  0.05561441     0.36500
C1762       C  0.08961512  0.79527096  0.08530469     0.36400
N1763       N  0.03002907  0.64735913  0.04812412    -0.43900
N1764       N  0.09844867  0.82017856  0.09121199    -0.43900
C1765       C  0.16833470  0.90452093  0.42840721    -0.00300
C1766       C  0.19405496  0.93345710  0.42560251    -0.12200
C1767       C  0.19410073  0.95540639  0.40807541     0.02000
C1768       C  0.16774118  0.94890332  0.39334879    -0.00400
C1769       C  0.14295450  0.91935254  0.39446543    -0.12100
C1770       C  0.14327230  0.89710127  0.41119612     0.01800
H1771       H  0.21382711  0.93947951  0.43795322     0.14800
H1772       H  0.12336012  0.91369479  0.38250566     0.14800
C1773       C  0.11772912  0.86679957  0.40971974     0.36500
C1774       C  0.22103176  0.98478093  0.40688763     0.36400
N1775       N  0.09742885  0.84246461  0.40828320    -0.43900
N1776       N  0.24263893  0.00828686  0.40571992    -0.43900
C1777       C  0.27999347  0.82655127  0.39801534    -0.00300
C1778       C  0.26554560  0.84271374  0.39164324    -0.12200
C1779       C  0.24359757  0.84196664  0.40959675     0.02000
C1780       C  0.23610917  0.82507166  0.43473039    -0.00400
C1781       C  0.24931922  0.80741652  0.44016459    -0.12100
C1782       C  0.27123601  0.80814605  0.42208388     0.01800
H1783       H  0.27180128  0.85634101  0.37279702     0.14800
H1784       H  0.24374797  0.79432061  0.45930602     0.14800
C1785       C  0.28608899  0.79171080  0.42970780     0.36500
C1786       C  0.22899534  0.85856709  0.40161526     0.36400
N1787       N  0.29820109  0.77873657  0.43578328    -0.43900
N1788       N  0.21720924  0.87176233  0.39518821    -0.43900
C1789       C  0.17203225  0.95579678  0.08626029    -0.00300
C1790       C  0.14923680  0.94080685  0.06647124    -0.12200
C1791       C  0.14833283  0.91879015  0.04906059     0.02000
C1792       C  0.17090516  0.91083196  0.05093553    -0.00400
C1793       C  0.19447633  0.92637077  0.07014189    -0.12100
C1794       C  0.19516744  0.94862412  0.08785390     0.01800
H1795       H  0.13155573  0.94633592  0.06437546     0.14800
H1796       H  0.21216512  0.92078965  0.07165824     0.14800
C1797       C  0.21903700  0.96264529  0.10805720     0.36500
C1798       C  0.12417437  0.90565383  0.02893095     0.36400
N1799       N  0.23815299  0.97369810  0.12431079    -0.43900
N1800       N  0.12733357  0.91783147  0.49338157    -0.43900
C1801       C  0.28325331  0.83476508  0.09269955    -0.00300
C1802       C  0.26599256  0.80817365  0.07744639    -0.12200
C1803       C  0.24355179  0.80508304  0.05883979     0.02000
C1804       C  0.23814744  0.82921001  0.05486453    -0.00400
C1805       C  0.25555886  0.85591062  0.06986564    -0.12100
C1806       C  0.27798772  0.85905960  0.08831112     0.01800
H1807       H  0.27108158  0.79022851  0.07906952     0.14800
H1808       H  0.25206668  0.87482825  0.06671442     0.14800
C1809       C  0.29600179  0.88819725  0.10111862     0.36500
C1810       C  0.22787991  0.77765180  0.04284467     0.36400
N1811       N  0.31091323  0.91190208  0.11057349    -0.43900
N1812       N  0.21540361  0.75562646  0.03005779    -0.43900
Fe1813     Fe  0.20524628  0.86977608  0.49229343     1.65800
Fe1814     Fe  0.12881258  0.83346751  0.99377737     1.73200
Fe1815     Fe  0.16433490  0.79264095  0.99399760     1.54400
O1816       O  0.20019281  0.80569524  0.96711288    -0.81800
O1817       O  0.10989219  0.80729882  0.52937357    -0.80100
O1818       O  0.22097416  0.85486787  0.95896536    -0.84300
O1819       O  0.22361890  0.85503231  0.52236179    -0.79200
O1820       O  0.13610082  0.77805510  0.95984937    -0.80900
O1821       O  0.14617066  0.87205465  0.52020116    -0.83700
C1822       C  0.21493174  0.83169154  0.53752871     0.97100
C1823       C  0.21872768  0.82949744  0.95419114     1.04500
O1824       O  0.16633465  0.83201095  0.99355638    -1.12700
O1825       O  0.14265018  0.86418521  0.96092532    -0.75100
O1826       O  0.19266284  0.89128606  0.96406556    -0.78600
O1827       O  0.19083641  0.80704415  0.53251942    -0.79300
C1828       C  0.16796866  0.88645035  0.95367383     0.96000
O1829       O  0.19580557  0.89119561  0.52366815    -0.77200
O1830       O  0.10831955  0.79976258  0.96457680    -0.82400
C1831       C  0.10861444  0.78262274  0.53537239     0.98600
C1832       C  0.11449627  0.78168124  0.95224219     1.04500
O1833       O  0.12609158  0.77485638  0.52425484    -0.78100
C1834       C  0.17185342  0.89130543  0.52972567     1.02800
Fe1835     Fe  0.36920172  0.66111296  0.01143837     1.65800
Fe1836     Fe  0.29094895  0.62537168  0.50754105     1.73200
Fe1837     Fe  0.33328366  0.70255489  0.50849160     1.61200
O1838       O  0.36953802  0.72036952  0.53592678    -0.81800
O1839       O  0.27472905  0.64178957  0.98195470    -0.80100
O1840       O  0.38692977  0.68879118  0.53970265    -0.84300
O1841       O  0.39109780  0.69466220  0.98170008    -0.79200
O1842       O  0.30464143  0.69039913  0.54290847    -0.80900
O1843       O  0.30313763  0.60560526  0.98175352    -0.83700
C1844       C  0.38764107  0.71569494  0.97203390     0.97100
C1845       C  0.38728091  0.71271137  0.54678573     1.04500
O1846       O  0.33066819  0.66294071  0.50725508    -1.12700
O1847       O  0.30225866  0.60454050  0.53841517    -0.75100
O1848       O  0.35151893  0.62451348  0.53278067    -0.78600
O1849       O  0.36671299  0.72015452  0.98018793    -0.79300
C1850       C  0.32675311  0.60561758  0.54438646     0.96000
O1851       O  0.35338194  0.62979234  0.97983895    -0.77200
O1852       O  0.27440328  0.64079866  0.53888233    -0.82400
C1853       C  0.28032502  0.66722652  0.97251835     0.98600
C1854       C  0.28216618  0.66558841  0.55109899     1.04500
O1855       O  0.30199497  0.69188593  0.98148422    -0.78100
C1856       C  0.32766260  0.60946374  0.97148798     1.02800
C1857       C  0.47237528  0.99567473  0.63250400     0.02200
C1858       C  0.47055712  0.96733484  0.63338381     0.02200
C1859       C  0.49709151  0.96573053  0.63403121     0.02200
C1860       C  0.02734491  0.99403780  0.63536065     0.02200
C1861       C  0.02741182  0.52535783  0.62685787     0.02200
C1862       C  0.00104269  0.52730495  0.62777962     0.02200
C1863       C  0.31085999  0.97745221  0.64919862     0.80100
N1864       N  0.31200238  0.50060998  0.63621647    -0.78200
C1865       C  0.33556641  0.52151616  0.62050829     0.82500
N1866       N  0.36140212  0.52056395  0.61969677    -0.78200
C1867       C  0.36123585  0.99825782  0.63426422     0.82600
N1868       N  0.33698083  0.97687646  0.64859445    -0.79900
C1869       C  0.18773185  0.52273141  0.62973330     0.80100
N1870       N  0.15940485  0.51798834  0.63114427    -0.78200
C1871       C  0.13995240  0.99745716  0.61858780     0.82500
N1872       N  0.14488169  0.97895696  0.60226399    -0.78200
C1873       C  0.17317082  0.98355717  0.59896380     0.82600
N1874       N  0.19687007  0.00731991  0.61193805    -0.79900
C1875       C  0.19426086  0.66422893  0.62734873     0.80100
N1876       N  0.16759671  0.63785568  0.62577031    -0.78200
C1877       C  0.14224508  0.63506103  0.63728558     0.82500
N1878       N  0.14333758  0.65903971  0.65013174    -0.78200
C1879       C  0.16953623  0.68581260  0.65153040     0.82600
N1880       N  0.19509083  0.68822023  0.64031702    -0.79900
C1881       C  0.47684082  0.66429265  0.63026376     0.80100
N1882       N  0.49517234  0.68678882  0.61204297    -0.78200
C1883       C  0.02092934  0.68973036  0.60856813     0.82500
N1884       N  0.02424916  0.66515113  0.61010764    -0.78200
C1885       C  0.50303497  0.63870794  0.61974363     0.82600
N1886       N  0.48136797  0.64071964  0.63391531    -0.79900
C1887       C  0.30224848  0.83683673  0.61658810     0.80100
N1888       N  0.33033916  0.86143176  0.61796235    -0.78200
C1889       C  0.35292579  0.86019124  0.63116851     0.82500
N1890       N  0.34767256  0.83385527  0.64253770    -0.78200
C1891       C  0.31992613  0.80899841  0.64109894     0.82600
N1892       N  0.29716710  0.81051079  0.62839641    -0.79900
C1893       C  0.02364168  0.82828194  0.64568335     0.80100
N1894       N  0.02330776  0.85457278  0.64537959    -0.78200
C1895       C  0.50102291  0.85579552  0.63136424     0.82500
N1896       N  0.47978393  0.83165152  0.61742792    -0.78200
C1897       C  0.47859658  0.80475838  0.61823721     0.82600
N1898       N  0.49998525  0.80234428  0.63299603    -0.79900
Fe1899     Fe  0.33352176  0.62870551  0.74089873     1.65800
Fe1900     Fe  0.29159795  0.66297984  0.74599211     1.73200
Fe1901     Fe  0.36813068  0.70577340  0.73713941     1.54400
O1902       O  0.39106438  0.69562898  0.76700075    -0.81800
O1903       O  0.30029302  0.69580174  0.71694972    -0.80100
O1904       O  0.36713057  0.64550487  0.77038651    -0.84300
O1905       O  0.36497055  0.64362444  0.70930464    -0.79200
O1906       O  0.35509360  0.72478186  0.76811243    -0.80900
O1907       O  0.27310827  0.63111099  0.71465040    -0.83700
C1908       C  0.38436282  0.66832905  0.69815767     0.97100
C1909       C  0.38820231  0.67153242  0.77753251     1.04500
O1910       O  0.33112475  0.66586491  0.74134732    -1.12700
O1911       O  0.27632072  0.63017337  0.77622370    -0.75100
O1912       O  0.30248264  0.60699701  0.77280532    -0.78600
O1913       O  0.38698291  0.69323599  0.70535104    -0.79300
C1914       C  0.28160925  0.60976027  0.78386897     0.96000
O1915       O  0.30041027  0.60864948  0.71094226    -0.77200
O1916       O  0.30617406  0.69477291  0.77749952    -0.82400
C1917       C  0.32298744  0.71610562  0.70391853     0.98600
C1918       C  0.33125752  0.71871647  0.78144382     1.04500
O1919       O  0.34944883  0.72052526  0.70703080    -0.78100
C1920       C  0.27857089  0.61189432  0.70341448     1.02800
Fe1921     Fe  0.12924254  0.79107820  0.75881917     1.65800
Fe1922     Fe  0.20578486  0.83413115  0.75893549     1.73200
Fe1923     Fe  0.16348863  0.86752580  0.75888054     1.54400
O1924       O  0.13589278  0.85364657  0.72449709    -0.81800
O1925       O  0.22455057  0.87091631  0.78534716    -0.80100
O1926       O  0.10719904  0.80411022  0.73091235    -0.84300
O1927       O  0.11006289  0.80108912  0.79251441    -0.79200
O1928       O  0.20003008  0.89057948  0.73203036    -0.80900
O1929       O  0.19536279  0.80677198  0.79344767    -0.83700
C1930       C  0.10919296  0.82487620  0.79778721     0.97100
C1931       C  0.11316527  0.82836447  0.71836148     1.04500
O1932       O  0.16607920  0.83082762  0.75898982    -1.12700
O1933       O  0.19300479  0.79773816  0.73285600    -0.75100
O1934       O  0.14398358  0.77650997  0.72516708    -0.78600
O1935       O  0.12655131  0.84972469  0.78546179    -0.79300
C1936       C  0.16935492  0.77875435  0.72024191     0.96000
O1937       O  0.14691901  0.77313627  0.78643016    -0.77200
O1938       O  0.21985750  0.86160806  0.72414896    -0.82400
C1939       C  0.21580480  0.88656792  0.79858456     0.98600
C1940       C  0.21805571  0.88481217  0.71885411     1.04500
O1941       O  0.19082750  0.88487543  0.79346364    -0.78100
C1942       C  0.17169686  0.78191152  0.79901024     1.02800
C1943       C  0.47081729  0.50176624  0.86699053     0.02200
C1944       C  0.47147652  0.97286942  0.85942440     0.02200
C1945       C  0.99676197  0.97163967  0.85234750     0.02200
C1946       C  0.02562597  0.50065303  0.86388854     0.02200
C1947       C  0.02785559  0.52926124  0.86501143     0.02200
C1948       C  0.00122073  0.53101966  0.86669843     0.02200
C1949       C  0.18726636  0.51869510  0.85373626     0.80100
N1950       N  0.16053467  0.51797744  0.85323514    -0.78200
C1951       C  0.13585133  0.49562354  0.86624580     0.82500
N1952       N  0.13906854  0.97318461  0.87785463    -0.78200
C1953       C  0.16647658  0.97558534  0.88064816     0.82600
N1954       N  0.18890632  0.49608511  0.86682345    -0.79900
C1955       C  0.31103376  0.97872442  0.86525965     0.80100
N1956       N  0.33854185  0.98159936  0.86172665    -0.78200
C1957       C  0.36227330  0.50795685  0.87545336     0.82500
N1958       N  0.35889733  0.52701275  0.89264430    -0.78200
C1959       C  0.33138110  0.52437551  0.89591026     0.82600
N1960       N  0.30714721  0.50236518  0.88212601    -0.79900
C1961       C  0.47864256  0.66972352  0.84896386     0.80100
N1962       N  0.50042611  0.69389680  0.86330293    -0.78200
C1963       C  0.02639980  0.69559848  0.87640094     0.82500
N1964       N  0.02782665  0.66999442  0.87465790    -0.78200
C1965       C  0.50109978  0.64126993  0.86191915     0.82600
N1966       N  0.47950831  0.64377265  0.84830492    -0.79900
C1967       C  0.19369202  0.66689440  0.89492047     0.80100
N1968       N  0.16769134  0.64001938  0.89178023    -0.78200
C1969       C  0.14501892  0.63795059  0.87574149     0.82500
N1970       N  0.14874888  0.66292668  0.86263142    -0.78200
C1971       C  0.17447443  0.68985559  0.86529473     0.82600
N1972       N  0.19704185  0.69190134  0.88158789    -0.79900
C1973       C  0.01788541  0.83068427  0.86523022     0.80100
N1974       N  0.01438215  0.85467188  0.85977398    -0.78200
C1975       C  0.99190167  0.85732520  0.87183755     0.82500
N1976       N  0.47357061  0.83451693  0.89628095    -0.78200
C1977       C  0.47666215  0.81010162  0.90111899     0.82600
N1978       N  0.99811111  0.80865366  0.88293114    -0.79900
C1979       C  0.30873509  0.82911727  0.88235109     0.80100
N1980       N  0.33368753  0.85694816  0.88067204    -0.78200
C1981       C  0.35799594  0.86137915  0.86565211     0.82500
N1982       N  0.35712429  0.83793192  0.85199704    -0.78200
C1983       C  0.33250199  0.80985584  0.85360889     0.82600
N1984       N  0.30814958  0.80541161  0.86895754    -0.79900
C1985       C  0.00289876  0.56066921  0.86612186    -0.00300
C1986       C  0.49116067  0.56535953  0.84150468    -0.12200
C1987       C  0.49064436  0.59219519  0.83972165     0.02000
C1988       C  0.50114758  0.61253555  0.86233901    -0.00400
C1989       C  0.01673571  0.60930919  0.88600179    -0.12100
C1990       C  0.01489065  0.58135839  0.88833063     0.01800
H1991       H  0.48325429  0.54988173  0.82396883     0.14800
H1992       H  0.02559615  0.62499597  0.90338521     0.14800
C1993       C  0.02426504  0.57411032  0.91411300     0.36500
C1994       C  0.48001716  0.59847500  0.81414797     0.36400
N1995       N  0.03178774  0.56861132  0.93496258    -0.43900
N1996       N  0.47145536  0.60340285  0.79362603    -0.43900
C1997       C  0.05822734  0.55711996  0.86688297    -0.00300
C1998       C  0.07540730  0.56140001  0.89096616    -0.12200
C1999       C  0.10371593  0.58724289  0.89436491     0.02000
C2000       C  0.11579798  0.60931686  0.87299765    -0.00400
C2001       C  0.09863551  0.60489194  0.84879454    -0.12100
C2002       C  0.07014486  0.57926027  0.84560335     0.01800
H2003       H  0.06616202  0.54475118  0.90762595     0.14800
H2004       H  0.10748341  0.62161649  0.83218610     0.14800
C2005       C  0.05402604  0.57627542  0.82010031     0.36500
C2006       C  0.11876872  0.59125861  0.92072743     0.36400
N2007       N  0.04148668  0.57432329  0.79949653    -0.43900
N2008       N  0.13070347  0.59457449  0.94195616    -0.43900
C2009       C  0.38555159  0.89127238  0.86432136    -0.00300
C2010       C  0.39906735  0.90272977  0.83816837    -0.12200
C2011       C  0.42651241  0.92987803  0.83614741     0.02000
C2012       C  0.44117858  0.94542795  0.86062579    -0.00400
C2013       C  0.42727522  0.93458907  0.88668376    -0.12100
C2014       C  0.39956419  0.90771721  0.88871460     0.01800
H2015       H  0.38814865  0.89044967  0.81934019     0.14800
H2016       H  0.43846260  0.94680415  0.90545325     0.14800
C2017       C  0.38689993  0.89663071  0.91612814     0.36500
C2018       C  0.43894316  0.94175276  0.80882441     0.36400
N2019       N  0.37673555  0.88767662  0.93808909    -0.43900
N2020       N  0.44872781  0.95162477  0.78696775    -0.43900
C2021       C  0.39141030  0.50914830  0.87264856    -0.00300
C2022       C  0.40831162  0.51262335  0.89672163    -0.12200
C2023       C  0.43407852  0.51001414  0.89533530     0.02000
C2024       C  0.44338605  0.50423357  0.86948595    -0.00400
C2025       C  0.42771235  0.99876579  0.84015709    -0.12100
C2026       C  0.40146236  0.00040652  0.84270821     0.01800
H2027       H  0.40073903  0.51618887  0.91677146     0.14800
H2028       H  0.43357278  0.99334479  0.82011896     0.14800
C2029       C  0.38394293  0.99626824  0.81789864     0.36500
C2030       C  0.44985701  0.51203135  0.92081510     0.36400
N2031       N  0.36997793  0.99312367  0.79800132    -0.43900
N2032       N  0.46230117  0.51339557  0.94131751    -0.43900
C2033       C  0.10713938  0.49584372  0.86593136    -0.00300
C2034       C  0.10091788  0.00300439  0.83495713    -0.12200
C2035       C  0.07455406  0.00416691  0.83158045     0.02000
C2036       C  0.05353408  0.49847099  0.86381275    -0.00400
C2037       C  0.06099810  0.48827579  0.88802626    -0.12100
C2038       C  0.08754235  0.48698291  0.88931994     0.01800
H2039       H  0.11717674  0.01051379  0.81792443     0.14800
H2040       H  0.04631897  0.48196484  0.90620119     0.14800
C2041       C  0.09496061  0.47821140  0.91540271     0.36500
C2042       C  0.06972846  0.01442972  0.80509065     0.36400
N2043       N  0.10110635  0.47137277  0.93630957    -0.43900
N2044       N  0.06615674  0.02229057  0.78351846    -0.43900
C2045       C  0.99328215  0.94100760  0.85583739    -0.00300
C2046       C  0.98204611  0.92573114  0.88134592    -0.12200
C2047       C  0.97961464  0.89772676  0.88647584     0.02000
C2048       C  0.99004897  0.88496191  0.86629007    -0.00400
C2049       C  0.49674178  0.89646533  0.84688455    -0.12100
C2050       C  0.49788272  0.92374758  0.84117436     0.01800
H2051       H  0.97557683  0.93606445  0.89763228     0.14800
H2052       H  0.50017829  0.88445075  0.82995538     0.14800
C2053       C  0.50230313  0.93434367  0.81265947     0.36500
C2054       C  0.96716762  0.88331404  0.91302281     0.36400
N2055       N  0.50554255  0.94231981  0.78962306    -0.43900
N2056       N  0.95685351  0.87178517  0.93425018    -0.43900
C2057       C  0.17607643  0.71650268  0.85166659    -0.00300
C2058       C  0.14928891  0.71740387  0.85006620    -0.12200
C2059       C  0.14761785  0.73922295  0.83411617     0.02000
C2060       C  0.17341390  0.76141438  0.81974107    -0.00400
C2061       C  0.20075643  0.76171444  0.82273697    -0.12100
C2062       C  0.20213783  0.73918179  0.83804090     0.01800
H2063       H  0.12910018  0.70024667  0.86062312     0.14800
H2064       H  0.22063472  0.77826458  0.81136975     0.14800
C2065       C  0.22939921  0.73787948  0.83635208     0.36500
C2066       C  0.11881600  0.73753995  0.83213512     0.36400
N2067       N  0.25117825  0.73675460  0.83406642    -0.43900
N2068       N  0.09571878  0.73608628  0.83012040    -0.43900
C2069       C  0.04280599  0.82861953  0.85127010    -0.00300
C2070       C  0.03794444  0.80046349  0.84229021    -0.12200
C2071       C  0.05941889  0.79817392  0.82571078     0.02000
C2072       C  0.08698407  0.82447362  0.81844200    -0.00400
C2073       C  0.09245556  0.85228918  0.82911075    -0.12100
C2074       C  0.07078271  0.85466337  0.84489267     0.01800
H2075       H  0.01654128  0.78030805  0.84683882     0.14800
H2076       H  0.11355004  0.87271250  0.82432218     0.14800
C2077       C  0.07787709  0.88441403  0.85369855     0.36500
C2078       C  0.05130094  0.76886971  0.81482312     0.36400
N2079       N  0.08350942  0.90832062  0.86041350    -0.43900
N2080       N  0.04433032  0.74528068  0.80602409    -0.43900
C2081       C  0.23651136  0.90802880  0.81997083    -0.00300
C2082       C  0.25963634  0.90365902  0.83011080    -0.12200
C2083       C  0.28295562  0.92542943  0.84636227     0.02000
C2084       C  0.28403716  0.95288585  0.85240369    -0.00400
C2085       C  0.25948365  0.95611381  0.84461591    -0.12100
C2086       C  0.23566539  0.93390662  0.82880959     0.01800
H2087       H  0.25991053  0.88324805  0.82486440     0.14800
H2088       H  0.25940531  0.97660972  0.84991242     0.14800
C2089       C  0.21140981  0.93897574  0.82134396     0.36500
C2090       C  0.30529974  0.91873754  0.85668253     0.36400
N2091       N  0.19190455  0.94305275  0.81567472    -0.43900
N2092       N  0.32321869  0.91347325  0.86505885    -0.43900
C2093       C  0.41057292  0.67306735  0.79841555    -0.00300
C2094       C  0.40479110  0.64605183  0.81133761    -0.12200
C2095       C  0.42594220  0.64474339  0.82856402     0.02000
C2096       C  0.45412007  0.67107638  0.83362273    -0.00400
C2097       C  0.45935991  0.69853712  0.82217510    -0.12100
C2098       C  0.43811121  0.69977152  0.80460854     0.01800
H2099       H  0.38370719  0.62537187  0.80757292     0.14800
H2100       H  0.48064179  0.71896048  0.82601012     0.14800
C2101       C  0.44590259  0.72860628  0.79257815     0.36500
C2102       C  0.41768142  0.61572465  0.84061848     0.36400
N2103       N  0.45219964  0.75174106  0.78293763    -0.43900
N2104       N  0.41093648  0.59235946  0.84999881    -0.43900
C2105       C  0.26130729  0.58785605  0.80558752    -0.00300
C2106       C  0.24091525  0.59415568  0.81945118    -0.12200
C2107       C  0.21751939  0.57255016  0.83607234     0.02000
C2108       C  0.21411136  0.54366462  0.83954923    -0.00400
C2109       C  0.23602288  0.53817595  0.82792231    -0.12100
C2110       C  0.25936290  0.55976542  0.81094857     0.01800
H2111       H  0.24244826  0.61581836  0.81651378     0.14800
H2112       H  0.23409726  0.51633487  0.83092881     0.14800
C2113       C  0.27982847  0.55159577  0.79842596     0.36500
C2114       C  0.19709401  0.58069503  0.84882111     0.36400
N2115       N  0.29609310  0.54479303  0.78850585    -0.43900
N2116       N  0.18047911  0.58701226  0.85877651    -0.43900
C2117       C  0.33260214  0.74175779  0.80089343    -0.00300
C2118       C  0.31733439  0.73323043  0.82670082    -0.12200
C2119       C  0.31732804  0.75485349  0.84469874     0.02000
C2120       C  0.33208960  0.78552710  0.83650259    -0.00400
C2121       C  0.34749747  0.79384410  0.81077626    -0.12100
C2122       C  0.34788531  0.77251722  0.79307554     0.01800
H2123       H  0.30554959  0.70962784  0.83290010     0.14800
H2124       H  0.35879068  0.81724541  0.80397865     0.14800
C2125       C  0.36256894  0.78273633  0.76616230     0.36500
C2126       C  0.30236171  0.74491362  0.87142464     0.36400
N2127       N  0.37415753  0.79090285  0.74455711    -0.43900
N2128       N  0.29001546  0.73651150  0.89266405    -0.43900
C2129       C  0.09174133  0.82715656  0.69685957    -0.00300
C2130       C  0.06209661  0.80242468  0.69713852    -0.12200
C2131       C  0.03980681  0.80183539  0.68006258     0.02000
C2132       C  0.04695508  0.82626328  0.66195314    -0.00400
C2133       C  0.07677972  0.85033443  0.66062802    -0.12100
C2134       C  0.09917434  0.85094982  0.67762600     0.01800
H2135       H  0.05579775  0.78399379  0.71175448     0.14800
H2136       H  0.08255428  0.86898601  0.64641272     0.14800
C2137       C  0.12943023  0.87633761  0.67473591     0.36500
C2138       C  0.00934024  0.77707243  0.68339788     0.36400
N2139       N  0.15363802  0.89671376  0.67235200    -0.43900
N2140       N  0.98496193  0.75726494  0.68647062    -0.43900
C2141       C  0.31838337  0.73690633  0.68618545    -0.00300
C2142       C  0.32844893  0.74214559  0.65832341    -0.12200
C2143       C  0.32649889  0.76391561  0.64222321     0.02000
C2144       C  0.31500921  0.78108931  0.65427860    -0.00400
C2145       C  0.30358773  0.77482324  0.68152232    -0.12100
C2146       C  0.30503509  0.75286263  0.69752081     0.01800
H2147       H  0.33813526  0.72956755  0.64932033     0.14800
H2148       H  0.29513822  0.78835609  0.69085422     0.14800
C2149       C  0.29490858  0.74900917  0.72625429     0.36500
C2150       C  0.33644973  0.76853482  0.61345710     0.36400
N2151       N  0.28684030  0.74620209  0.74926218    -0.43900
N2152       N  0.34396256  0.77224310  0.59025585    -0.43900
C2153       C  0.45174122  0.66474989  0.64600545    -0.00300
C2154       C  0.44871756  0.69054207  0.64507701    -0.12200
C2155       C  0.42617976  0.69207653  0.66067645     0.02000
C2156       C  0.40605021  0.66748622  0.67777927    -0.00400
C2157       C  0.40827450  0.64141811  0.67759803    -0.12100
C2158       C  0.43048587  0.63972001  0.66234567     0.01800
H2159       H  0.46424793  0.70981458  0.63249235     0.14800
H2160       H  0.39304077  0.62214036  0.69037284     0.14800
C2161       C  0.43027526  0.61157089  0.66472673     0.36500
C2162       C  0.42418752  0.71902602  0.65871340     0.36400
N2163       N  0.42941470  0.58872791  0.66703518    -0.43900
N2164       N  0.42247309  0.74059331  0.65753060    -0.43900
C2165       C  0.17021098  0.71171519  0.66604892    -0.00300
C2166       C  0.19676923  0.73293308  0.67935351    -0.12200
C2167       C  0.19759776  0.75573083  0.69601874     0.02000
C2168       C  0.17117526  0.75764431  0.69986924    -0.00400
C2169       C  0.14517278  0.73751397  0.68499199    -0.12100
C2170       C  0.14450743  0.71495018  0.66810280     0.01800
H2171       H  0.21684204  0.73111999  0.67756451     0.14800
H2172       H  0.12495140  0.73902523  0.68681175     0.14800
C2173       C  0.11723836  0.69593947  0.65272730     0.36500
C2174       C  0.22585193  0.77608256  0.70932772     0.36400
N2175       N  0.09541290  0.68085544  0.64035499    -0.43900
N2176       N  0.24856225  0.79234923  0.71990043    -0.43900
C2177       C  0.21199246  0.54781353  0.64639890    -0.00300
C2178       C  0.24136855  0.55232150  0.64612222    -0.12200
C2179       C  0.26408138  0.57416925  0.66318628     0.02000
C2180       C  0.25737229  0.59147647  0.68175033    -0.00400
C2181       C  0.22869943  0.58826718  0.68068517    -0.12100
C2182       C  0.20633896  0.56730333  0.66323333     0.01800
H2183       H  0.24670535  0.53866503  0.63265779     0.14800
H2184       H  0.22326757  0.60186694  0.69415309     0.14800
C2185       C  0.17805509  0.56698028  0.66365736     0.36500
C2186       C  0.29413785  0.57886328  0.66050421     0.36400
N2187       N  0.15572858  0.56732033  0.66428121    -0.43900
N2188       N  0.31823037  0.58267602  0.65815324    -0.43900
C2189       C  0.28458364  0.95352818  0.66458964    -0.00300
C2190       C  0.27774674  0.92353735  0.66170407    -0.12200
C2191       C  0.25486550  0.90030604  0.67770956     0.02000
C2192       C  0.23895029  0.90713986  0.69787665    -0.00400
C2193       C  0.24483046  0.93697960  0.69956117    -0.12100
C2194       C  0.26722885  0.96001562  0.68310871     0.01800
H2195       H  0.29039619  0.91824454  0.64687969     0.14800
H2196       H  0.23272186  0.94271813  0.71458643     0.14800
C2197       C  0.27284453  0.99028938  0.68683427     0.36500
C2198       C  0.24794118  0.86979395  0.67237465     0.36400
N2199       N  0.27541299  0.51495359  0.68616755    -0.43900
N2200       N  0.24238689  0.84542540  0.66770744    -0.43900
C2201       C  0.05730905  0.55333020  0.62876059    -0.00300
C2202       C  0.06571936  0.56803869  0.65458099    -0.12200
C2203       C  0.09362897  0.59413738  0.65797913     0.02000
C2204       C  0.11342701  0.60647609  0.63497129    -0.00400
C2205       C  0.10519707  0.59165734  0.60909404    -0.12100
C2206       C  0.07725658  0.56526348  0.60579786     0.01800
H2207       H  0.05055040  0.55867484  0.67233545     0.14800
H2208       H  0.12033688  0.60107324  0.59130487     0.14800
C2209       C  0.06929960  0.55131447  0.57863323     0.36500
C2210       C  0.10208381  0.60675400  0.68563723     0.36400
N2211       N  0.06306647  0.54021950  0.55680341    -0.43900
N2212       N  0.10896106  0.61659715  0.70788594    -0.43900
C2213       C  0.50596914  0.55685839  0.62546598    -0.00300
C2214       C  0.50289348  0.57007223  0.64989408    -0.12200
C2215       C  0.50261025  0.59714991  0.64869960     0.02000
C2216       C  0.50553639  0.61140975  0.62261223    -0.00400
C2217       C  0.00794423  0.60047857  0.60233669    -0.12100
C2218       C  0.00551078  0.57212826  0.60200036     0.01800
H2219       H  0.50057600  0.55910135  0.66986631     0.14800
H2220       H  0.00858598  0.61141574  0.58279132     0.14800
C2221       C  0.00410212  0.55821133  0.57543964     0.36500
C2222       C  0.49984035  0.60998250  0.67457645     0.36400
N2223       N  0.00271196  0.54692643  0.55415815    -0.43900
N2224       N  0.49749123  0.62006534  0.69540073    -0.43900
C2225       C  0.05487966  0.99170797  0.63239751    -0.00300
C2226       C  0.05963379  0.48532612  0.59971910    -0.12200
C2227       C  0.08608026  0.48412720  0.59666860     0.02000
C2228       C  0.10949739  0.99278048  0.62303589    -0.00400
C2229       C  0.10229119  0.99898157  0.64962531    -0.12100
C2230       C  0.07530793  0.99857280  0.65445539     0.01800
H2231       H  0.04460780  0.47992486  0.58206452     0.14800
H2232       H  0.11817281  0.00483825  0.66663310     0.14800
C2233       C  0.06942037  0.00567531  0.68207480     0.36500
C2234       C  0.09253126  0.47611265  0.56969167     0.36400
N2235       N  0.06507805  0.01144019  0.70435099    -0.43900
N2236       N  0.09727530  0.46962719  0.54789541    -0.43900
C2237       C  0.49541753  0.93609685  0.63399917    -0.00300
C2238       C  0.49311682  0.92203581  0.60835504    -0.12200
C2239       C  0.49490460  0.89583458  0.60702509     0.02000
C2240       C  0.49974663  0.88377396  0.63168730    -0.00400
C2241       C  0.00454740  0.89955919  0.65750075    -0.12100
C2242       C  0.00235555  0.92554813  0.65947682     0.01800
H2243       H  0.49054512  0.93195394  0.58931364     0.14800
H2244       H  0.00891816  0.89042359  0.67616058     0.14800
C2245       C  0.00495716  0.93876060  0.68664063     0.36500
C2246       C  0.49250953  0.88227004  0.58004112     0.36400
N2247       N  0.00660989  0.94879438  0.70863563    -0.43900
N2248       N  0.49040628  0.87128720  0.55844400    -0.43900
C2249       C  0.38324430  0.88707763  0.63220224    -0.00300
C2250       C  0.39553144  0.90385078  0.60761090    -0.12200
C2251       C  0.42433168  0.92938553  0.60745667     0.02000
C2252       C  0.44072191  0.93922656  0.63249831    -0.00400
C2253       C  0.42857291  0.92240330  0.65707112    -0.12100
C2254       C  0.40022108  0.89618092  0.65704663     0.01800
H2255       H  0.38286311  0.89655496  0.58831864     0.14800
H2256       H  0.44117460  0.92992437  0.67634158     0.14800
C2257       C  0.38878623  0.87952334  0.68287550     0.36500
C2258       C  0.43701572  0.94464166  0.58126533     0.36400
N2259       N  0.37968143  0.86604477  0.70351159    -0.43900
N2260       N  0.44729480  0.95675440  0.56024474    -0.43900
C2261       C  0.44431654  0.99731276  0.63341823    -0.00300
C2262       C  0.43628039  0.50535816  0.60533827    -0.12200
C2263       C  0.40882409  0.50482652  0.60649470     0.02000
C2264       C  0.38970533  0.99776695  0.63349232    -0.00400
C2265       C  0.40068287  0.99239230  0.65831854    -0.12100
C2266       C  0.42793810  0.99244649  0.65850123     0.01800
H2267       H  0.44788585  0.50901953  0.58549628     0.14800
H2268       H  0.38819931  0.98865453  0.67768822     0.14800
C2269       C  0.43887742  0.98777270  0.68465503     0.36500
C2270       C  0.39680714  0.50887618  0.58071431     0.36400
N2271       N  0.44769016  0.98402312  0.70559149    -0.43900
N2272       N  0.38712958  0.51217069  0.56010648    -0.43900
C2273       C  0.32642940  0.58836871  0.94987720    -0.00300
C2274       C  0.30564105  0.55743684  0.95321320    -0.12200
C2275       C  0.30664725  0.53611480  0.93574333     0.02000
C2276       C  0.32824810  0.54579997  0.91402011    -0.00400
C2277       C  0.34832480  0.57671983  0.91009026    -0.12100
C2278       C  0.34759494  0.59800298  0.92773450     0.01800
H2279       H  0.28968506  0.54977845  0.97049342     0.14800
H2280       H  0.36482209  0.58425636  0.89326761     0.14800
C2281       C  0.36863485  0.62957337  0.92252615     0.36500
C2282       C  0.28709696  0.50449860  0.94204360     0.36400
N2283       N  0.38545353  0.65487833  0.91837717    -0.43900
N2284       N  0.25662826  0.98710661  0.92234914    -0.43900
C2285       C  0.33305290  0.54432110  0.60305968    -0.00300
C2286       C  0.30449686  0.53875302  0.59468706    -0.12200
C2287       C  0.30141936  0.55805090  0.57578345     0.02000
C2288       C  0.32735713  0.58442701  0.56559563    -0.00400
C2289       C  0.35567737  0.59046875  0.57503658    -0.12100
C2290       C  0.35884709  0.57082075  0.59294885     0.01800
H2291       H  0.28447312  0.51846207  0.60183649     0.14800
H2292       H  0.37592246  0.61050255  0.56781893     0.14800
C2293       C  0.38929591  0.57855562  0.59954646     0.36500
C2294       C  0.27150670  0.54870255  0.56593393     0.36400
N2295       N  0.41386184  0.58478762  0.60400676    -0.43900
N2296       N  0.24733852  0.54033393  0.55801323    -0.43900
C2297       C  0.21752652  0.66865767  0.91358139    -0.00300
C2298       C  0.22356261  0.64491746  0.91332483    -0.12200
C2299       C  0.24450436  0.64443852  0.93159553     0.02000
C2300       C  0.26001024  0.66812620  0.95091340    -0.00400
C2301       C  0.25437487  0.69224793  0.95081612    -0.12100
C2302       C  0.23309458  0.69247750  0.93267162     0.01800
H2303       H  0.21176807  0.62654537  0.89884108     0.14800
H2304       H  0.26560723  0.71032174  0.96578799     0.14800
C2305       C  0.22586474  0.71607488  0.93557362     0.36500
C2306       C  0.24984065  0.61947212  0.92969476     0.36400
N2307       N  0.21951611  0.73458937  0.93788466    -0.43900
N2308       N  0.25410521  0.59946330  0.92819145    -0.43900
C2309       C  0.41000705  0.73725616  0.95169663    -0.00300
C2310       C  0.44081669  0.74880159  0.95678940    -0.12200
C2311       C  0.46293473  0.77261364  0.94067449     0.02000
C2312       C  0.45429573  0.78491341  0.91866892    -0.00400
C2313       C  0.42355665  0.77281774  0.91308784    -0.12100
C2314       C  0.40146942  0.74909793  0.92924196     0.01800
H2315       H  0.44762761  0.74022172  0.97429270     0.14800
H2316       H  0.41677775  0.78182955  0.89590927     0.14800
C2317       C  0.37020058  0.73677287  0.92199752     0.36500
C2318       C  0.49416754  0.78536856  0.94836501     0.36400
N2319       N  0.34509846  0.72664202  0.91623103    -0.43900
N2320       N  0.01965947  0.80003098  0.94908168    -0.43900
C2321       C  0.22115305  0.66639105  0.61310784    -0.00300
C2322       C  0.22028603  0.63935178  0.60663065    -0.12200
C2323       C  0.24076569  0.63862397  0.58786978     0.02000
C2324       C  0.26337911  0.66561906  0.57507904    -0.00400
C2325       C  0.26647711  0.69311605  0.58418032    -0.12100
C2326       C  0.24573807  0.69371551  0.60303906     0.01800
H2327       H  0.20251854  0.61822376  0.61526159     0.14800
H2328       H  0.28416525  0.71419233  0.57548887     0.14800
C2329       C  0.24942299  0.72254990  0.61037544     0.36500
C2330       C  0.23674401  0.60937745  0.58165166     0.36400
N2331       N  0.25215866  0.74553899  0.61651569    -0.43900
N2332       N  0.23276780  0.58559915  0.57689080    -0.43900
C2333       C  0.45378728  0.77884843  0.60290605    -0.00300
C2334       C  0.45799873  0.75576058  0.59227648    -0.12200
C2335       C  0.43628937  0.73308233  0.57498975     0.02000
C2336       C  0.40956483  0.73326252  0.56792511    -0.00400
C2337       C  0.40477015  0.75532947  0.58000944    -0.12100
C2338       C  0.42615296  0.77772416  0.59726847     0.01800
H2339       H  0.47880604  0.75601131  0.59661506     0.14800
H2340       H  0.38420933  0.75548448  0.57554912     0.14800
C2341       C  0.41867185  0.79912673  0.60883575     0.36500
C2342       C  0.44290010  0.71089281  0.56401997     0.36400
N2343       N  0.41269625  0.81633334  0.61791581    -0.43900
N2344       N  0.44838175  0.69317430  0.55537516    -0.43900
C2345       C  0.05057626  0.72169500  0.89172001    -0.00300
C2346       C  0.07854835  0.72329848  0.89463625    -0.12200
C2347       C  0.10071147  0.74414618  0.91242536     0.02000
C2348       C  0.09464966  0.76331942  0.92890033    -0.00400
C2349       C  0.06772060  0.76353071  0.92412491    -0.12100
C2350       C  0.04588598  0.74319838  0.90564869     0.01800
H2351       H  0.08300157  0.70765747  0.88337012     0.14800
H2352       H  0.06296306  0.77875663  0.93574392     0.14800
C2353       C  0.01823184  0.74374850  0.90293976     0.36500
C2354       C  0.12923491  0.74503387  0.91318463     0.36400
N2355       N  0.49503401  0.74316482  0.89886358    -0.43900
N2356       N  0.15211818  0.74581752  0.91357250    -0.43900
C2357       C  0.04068834  0.71449811  0.58915609    -0.00300
C2358       C  0.05689034  0.74447671  0.59851812    -0.12200
C2359       C  0.07836100  0.76760515  0.58109192     0.02000
C2360       C  0.08460597  0.76047695  0.55428835    -0.00400
C2361       C  0.06757521  0.73067949  0.54478777    -0.12100
C2362       C  0.04544796  0.70797828  0.56161340     0.01800
H2363       H  0.05311312  0.74976506  0.61960885     0.14800
H2364       H  0.07141387  0.72512461  0.52381117     0.14800
C2365       C  0.02720539  0.67826457  0.54983720     0.36500
C2366       C  0.09402042  0.79814007  0.59135708     0.36400
N2367       N  0.01229597  0.65451161  0.54043919    -0.43900
N2368       N  0.10628088  0.82263188  0.59960145    -0.43900
C2369       C  0.16879044  0.90888754  0.93358501    -0.00300
C2370       C  0.18360437  0.93934230  0.94157651    -0.12200
C2371       C  0.18338874  0.96138751  0.92443585     0.02000
C2372       C  0.16905694  0.95331506  0.89827208    -0.00400
C2373       C  0.15448690  0.92293700  0.89006535    -0.12100
C2374       C  0.15403299  0.90069979  0.90754752     0.01800
H2375       H  0.19438242  0.94575783  0.96184720     0.14800
H2376       H  0.14317064  0.91654299  0.87005677     0.14800
C2377       C  0.13863426  0.86977729  0.89823363     0.36500
C2378       C  0.19627943  0.99176068  0.93489565     0.36400
N2379       N  0.12629014  0.84498297  0.89079133    -0.43900
N2380       N  0.20635804  0.01603232  0.94337081    -0.43900
C2381       C  0.28269850  0.82538022  0.89876175    -0.00300
C2382       C  0.26872370  0.84165164  0.89073727    -0.12200
C2383       C  0.24705846  0.84260413  0.90795785     0.02000
C2384       C  0.23939852  0.82734844  0.93388140    -0.00400
C2385       C  0.25238552  0.80991314  0.94120631    -0.12100
C2386       C  0.27393109  0.80888607  0.92395181     0.01800
H2387       H  0.27498812  0.85385899  0.87108424     0.14800
H2388       H  0.24655505  0.79797566  0.96102745     0.14800
C2389       C  0.28806197  0.79234518  0.93342271     0.36500
C2390       C  0.23231767  0.85847281  0.89823656     0.36400
N2391       N  0.29928590  0.77907508  0.94124751    -0.43900
N2392       N  0.22018968  0.87087272  0.89042332    -0.43900
C2393       C  0.17708527  0.96280782  0.58042219    -0.00300
C2394       C  0.16037456  0.95417214  0.55568940    -0.12200
C2395       C  0.15862345  0.93111719  0.53911607     0.02000
C2396       C  0.17402509  0.91608637  0.54705322    -0.00400
C2397       C  0.19223401  0.92573983  0.57100797    -0.12100
C2398       C  0.19366221  0.94881869  0.58789306     0.01800
H2399       H  0.14805319  0.96521757  0.54948924     0.14800
H2400       H  0.20449533  0.91457575  0.57702210     0.14800
C2401       C  0.21057255  0.95630905  0.61350867     0.36500
C2402       C  0.14124911  0.92377196  0.51371284     0.36400
N2403       N  0.22400540  0.96222934  0.63411977    -0.43900
N2404       N  0.10471436  0.89524022  0.01296424    -0.43900
C2405       C  0.27811011  0.83783133  0.60017638    -0.00300
C2406       C  0.24958127  0.81158062  0.59843281    -0.12200
C2407       C  0.22789063  0.80930256  0.57943910     0.02000
C2408       C  0.23460695  0.83371616  0.56127618    -0.00400
C2409       C  0.26179962  0.86102859  0.56524974    -0.12100
C2410       C  0.28323738  0.86348628  0.58453555     0.01800
H2411       H  0.24426326  0.79230089  0.61151822     0.14800
H2412       H  0.26690253  0.88065343  0.55269331     0.14800
C2413       C  0.31016525  0.89272069  0.58724178     0.36500
C2414       C  0.19922478  0.78150281  0.57920026     0.36400
N2415       N  0.33154392  0.91627417  0.58935070    -0.43900
N2416       N  0.17626002  0.75920970  0.57930103    -0.43900
Fe2417     Fe  0.70532426  0.36867733  0.99451485     1.65800
Fe2418     Fe  0.62912773  0.33368418  0.48967443     1.73200
Fe2419     Fe  0.66151267  0.28957398  0.48958457     1.54400
O2420       O  0.69617068  0.30162222  0.46112673    -0.81800
O2421       O  0.60982408  0.30304635  0.02967203    -0.80100
O2422       O  0.71937757  0.35145865  0.45521801    -0.84300
O2423       O  0.72474743  0.35308269  0.02299043    -0.79200
O2424       O  0.63204031  0.27563698  0.45647863    -0.80900
O2425       O  0.64500759  0.36782888  0.02361648    -0.83700
C2426       C  0.71799194  0.32812106  0.03456856     0.97100
C2427       C  0.71534214  0.32570440  0.44883083     1.04500
O2428       O  0.66544086  0.32983917  0.48990774    -1.12700
O2429       O  0.64474942  0.36398360  0.45662794    -0.75100
O2430       O  0.69444098  0.39023061  0.46232158    -0.78600
O2431       O  0.69391994  0.30365031  0.02914114    -0.79300
C2432       C  0.67060651  0.38608845  0.45058640     0.96000
O2433       O  0.69467074  0.38818541  0.02741960    -0.77200
O2434       O  0.60667495  0.29989303  0.46066195    -0.82400
C2435       C  0.61065755  0.27955951  0.03620051     0.98600
C2436       C  0.61125341  0.28046718  0.44884376     1.04500
O2437       O  0.62888187  0.27288218  0.02492736    -0.78100
C2438       C  0.67015119  0.38705234  0.03409482     1.02800
Fe2439     Fe  0.86956331  0.16470555  0.50916354     1.65800
Fe2440     Fe  0.79042520  0.12701145  0.00733991     1.73200
Fe2441     Fe  0.83194277  0.20418348  0.00815329     1.61200
O2442       O  0.86715369  0.22203731  0.03663387    -0.81800
O2443       O  0.77622930  0.14179846  0.47719837    -0.80100
O2444       O  0.88715481  0.19242050  0.03728949    -0.84300
O2445       O  0.89151539  0.20069048  0.48146919    -0.79200
O2446       O  0.80253171  0.19197690  0.04164414    -0.80900
O2447       O  0.80655723  0.10747149  0.48072040    -0.83700
C2448       C  0.88573692  0.21953180  0.47009216     0.97100
C2449       C  0.88587558  0.21497695  0.04604475     1.04500
O2450       O  0.82990897  0.16481816  0.00670153    -1.12700
O2451       O  0.80256779  0.10869292  0.03960316    -0.75100
O2452       O  0.85187515  0.12830510  0.03332813    -0.78600
O2453       O  0.86294162  0.22144452  0.47697147    -0.79300
C2454       C  0.82734578  0.11053128  0.04592157     0.96000
O2455       O  0.85630230  0.13614466  0.47544930    -0.77200
O2456       O  0.77216161  0.14248165  0.03741178    -0.82400
C2457       C  0.77912440  0.16697992  0.47017742     0.98600
C2458       C  0.77959641  0.16739701  0.04926689     1.04500
O2459       O  0.79834022  0.19156667  0.48154897    -0.78100
C2460       C  0.83117287  0.11357023  0.46879811     1.02800
C2461       C  0.97702209  0.49945691  0.14328592     0.02200
C2462       C  0.97341194  0.47036246  0.14184600     0.02200
C2463       C  0.99885560  0.46678262  0.14226683     0.02200
C2464       C  0.52814055  0.49531932  0.14179811     0.02200
C2465       C  0.52907251  0.02398650  0.14342400     0.02200
C2466       C  0.50414207  0.02846629  0.14247382     0.02200
C2467       C  0.81796825  0.48494314  0.15908294     0.80100
N2468       N  0.81596801  0.00994684  0.14035114    -0.78200
C2469       C  0.83958124  0.03303902  0.12625640     0.82500
N2470       N  0.86672300  0.03463041  0.12615344    -0.78200
C2471       C  0.86811000  0.50582508  0.14328941     0.82600
N2472       N  0.84471177  0.48565241  0.15917416    -0.79900
C2473       C  0.68138066  0.00708675  0.14600316     0.80100
N2474       N  0.65381166  0.00377231  0.15030796    -0.78200
C2475       C  0.63741794  0.49039423  0.13126825     0.82500
N2476       N  0.64111702  0.47071885  0.11548218    -0.78200
C2477       C  0.66894372  0.47431930  0.11122858     0.82600
N2478       N  0.69359906  0.49872938  0.12262284    -0.79900
C2479       C  0.69255651  0.16656173  0.12746420     0.80100
N2480       N  0.66693206  0.13928976  0.12947579    -0.78200
C2481       C  0.64285864  0.13581574  0.14426361     0.82500
N2482       N  0.64424181  0.16011047  0.15682156    -0.78200
C2483       C  0.66951173  0.18771766  0.15492898     0.82600
N2484       N  0.69382291  0.19080659  0.14041938    -0.79900
C2485       C  0.98619197  0.16798390  0.14500041     0.80100
N2486       N  0.00414423  0.19154729  0.12768520    -0.78200
C2487       C  0.52877839  0.19200112  0.11670507     0.82500
N2488       N  0.53181999  0.16735730  0.11942902    -0.78200
C2489       C  0.01660594  0.14666318  0.13613936     0.82600
N2490       N  0.99294912  0.14603436  0.14904570    -0.79900
C2491       C  0.81119411  0.33252005  0.10577805     0.80100
N2492       N  0.83633895  0.35971277  0.11040010    -0.78200
C2493       C  0.85878916  0.36176765  0.12661938     0.82500
N2494       N  0.85641137  0.33644371  0.13757727    -0.78200
C2495       C  0.83219718  0.30892821  0.13250826     0.82600
N2496       N  0.80927861  0.30700083  0.11670741    -0.79900
C2497       C  0.52354326  0.33121127  0.14508880     0.80100
N2498       N  0.52247578  0.35706717  0.14544141    -0.78200
C2499       C  0.99763542  0.35377626  0.13387957     0.82500
N2500       N  0.97673364  0.32978600  0.11921712    -0.78200
C2501       C  0.97828980  0.30427304  0.11698239     0.82600
N2502       N  0.00100144  0.30270980  0.12988733    -0.79900
Fe2503     Fe  0.83382789  0.12633691  0.24462352     1.65800
Fe2504     Fe  0.79219111  0.16063572  0.24075882     1.73200
Fe2505     Fe  0.86858217  0.20277356  0.23875432     1.54400
O2506       O  0.88693247  0.19507874  0.27425801    -0.81800
O2507       O  0.80494963  0.19439191  0.21094134    -0.80100
O2508       O  0.87007377  0.14592225  0.27132017    -0.84300
O2509       O  0.86209409  0.13758941  0.21050773    -0.79200
O2510       O  0.85184057  0.22421551  0.26304266    -0.80900
O2511       O  0.77709233  0.12936334  0.20899484    -0.83700
C2512       C  0.88503255  0.16245815  0.20344805     0.97100
C2513       C  0.88726118  0.17158405  0.28209373     1.04500
O2514       O  0.83155784  0.16326290  0.24145646    -1.12700
O2515       O  0.77381718  0.12695536  0.27073873    -0.75100
O2516       O  0.80595384  0.11117200  0.27930344    -0.78600
O2517       O  0.89065649  0.18750489  0.21362922    -0.79300
C2518       C  0.78191546  0.11133404  0.28485978     0.96000
O2519       O  0.79778356  0.10149805  0.21833760    -0.77200
O2520       O  0.80346086  0.19173257  0.27242042    -0.82400
C2521       C  0.82888669  0.21215867  0.19756991     0.98600
C2522       C  0.82719572  0.21720049  0.27528216     1.04500
O2523       O  0.85398664  0.21416242  0.20313623    -0.78100
C2524       C  0.77907085  0.10596756  0.20511258     1.02800
Fe2525     Fe  0.62851540  0.29441824  0.25942866     1.65800
Fe2526     Fe  0.70496328  0.33560150  0.26362338     1.73200
Fe2527     Fe  0.66408768  0.37114019  0.26113786     1.54400
O2528       O  0.63627614  0.35845346  0.22637586    -0.81800
O2529       O  0.72231758  0.37029923  0.29194139    -0.80100
O2530       O  0.60816555  0.30863401  0.23080766    -0.84300
O2531       O  0.60857933  0.30436386  0.29225246    -0.79200
O2532       O  0.70141583  0.39371122  0.23498266    -0.80900
O2533       O  0.69152605  0.30615270  0.29688163    -0.83700
C2534       C  0.60880066  0.32838499  0.29890249     0.97100
C2535       C  0.61372378  0.33328176  0.21940946     1.04500
O2536       O  0.66585433  0.33377024  0.26127014    -1.12700
O2537       O  0.69330527  0.30067454  0.23572596    -0.75100
O2538       O  0.64454059  0.28000079  0.22664459    -0.78600
O2539       O  0.62703618  0.35370109  0.28770247    -0.79300
C2540       C  0.66994001  0.28195823  0.22251099     0.96000
O2541       O  0.64329694  0.27462372  0.28787311    -0.77200
O2542       O  0.72299002  0.36575269  0.23098908    -0.82400
C2543       C  0.71454043  0.38753931  0.30347844     0.98600
C2544       C  0.72150849  0.38894114  0.22469773     1.04500
O2545       O  0.69124986  0.38819340  0.29599864    -0.78100
C2546       C  0.66704025  0.28179092  0.30152786     1.02800
C2547       C  0.97385258  0.00565026  0.35791530     0.02200
C2548       C  0.96833561  0.47303941  0.35206946     0.02200
C2549       C  0.49989944  0.47364733  0.36778170     0.02200
C2550       C  0.52477660  0.99854700  0.35807723     0.02200
C2551       C  0.52780324  0.02757520  0.35622531     0.02200
C2552       C  0.50171859  0.03040413  0.35585935     0.02200
C2553       C  0.68964458  0.02599341  0.36021039     0.80100
N2554       N  0.66170848  0.02236188  0.35784315    -0.78200
C2555       C  0.63733624  0.99878907  0.37012736     0.82500
N2556       N  0.64257729  0.47465473  0.37921726    -0.78200
C2557       C  0.67017576  0.47727717  0.38063940     0.82600
N2558       N  0.69295270  0.00511682  0.37473313    -0.79900
C2559       C  0.81009629  0.47880382  0.36899289     0.80100
N2560       N  0.83737391  0.48239946  0.36236594    -0.78200
C2561       C  0.86417242  0.00888896  0.37415199     0.82500
N2562       N  0.86177065  0.02954549  0.38985056    -0.78200
C2563       C  0.83415762  0.02594618  0.39543216     0.82600
N2564       N  0.80893656  0.00142843  0.38537229    -0.79900
C2565       C  0.97996190  0.17170559  0.35028844     0.80100
N2566       N  0.00105847  0.19605238  0.36462406    -0.78200
C2567       C  0.52451456  0.19497972  0.37137557     0.82500
N2568       N  0.52597513  0.16939147  0.36965584    -0.78200
C2569       C  0.00635452  0.14611360  0.35999078     0.82600
N2570       N  0.98299168  0.14701049  0.34795000    -0.79900
C2571       C  0.69031595  0.16570183  0.39447091     0.80100
N2572       N  0.66621506  0.13808062  0.38869695    -0.78200
C2573       C  0.64350640  0.13548323  0.37239215     0.82500
N2574       N  0.64518804  0.16061489  0.36170796    -0.78200
C2575       C  0.66883934  0.18834261  0.36715192     0.82600
N2576       N  0.69146881  0.19083924  0.38368000    -0.79900
C2577       C  0.51979067  0.33191630  0.37160490     0.80100
N2578       N  0.51794054  0.35719372  0.36905711    -0.78200
C2579       C  0.49646486  0.36014091  0.38265764     0.82500
N2580       N  0.96790921  0.33258505  0.38641110    -0.78200
C2581       C  0.97150131  0.30870315  0.39223712     0.82600
N2582       N  0.49894700  0.30864646  0.38758787    -0.79900
C2583       C  0.80451626  0.32914172  0.37345313     0.80100
N2584       N  0.82952537  0.35691969  0.37167921    -0.78200
C2585       C  0.85353230  0.36145556  0.35596233     0.82500
N2586       N  0.85207704  0.33803612  0.34154084    -0.78200
C2587       C  0.82732597  0.31003010  0.34341608     0.82600
N2588       N  0.80359895  0.30563503  0.35957019    -0.79900
C2589       C  0.50431662  0.06070132  0.35476781    -0.00300
C2590       C  0.01873003  0.08107204  0.37908706    -0.12200
C2591       C  0.01959968  0.10869000  0.38074171     0.02000
C2592       C  0.00794718  0.11806366  0.35865595    -0.00400
C2593       C  0.49517194  0.09782904  0.33211812    -0.12100
C2594       C  0.49468617  0.07032962  0.33135387     0.01800
H2595       H  0.02694155  0.07370917  0.39650214     0.14800
H2596       H  0.48764319  0.10493110  0.31401910     0.14800
C2597       C  0.48454309  0.05259702  0.30616214     0.36500
C2598       C  0.03055942  0.12568165  0.40626172     0.36400
N2599       N  0.47655570  0.03857436  0.28584788    -0.43900
N2600       N  0.03917658  0.13907002  0.42685841    -0.43900
C2601       C  0.55830463  0.05491018  0.35904660    -0.00300
C2602       C  0.57360321  0.05905064  0.38434725    -0.12200
C2603       C  0.60234955  0.08391292  0.38849610     0.02000
C2604       C  0.61584596  0.10614492  0.36744993    -0.00400
C2605       C  0.60071222  0.10185109  0.34198419    -0.12100
C2606       C  0.57238980  0.07642084  0.33747768     0.01800
H2607       H  0.56281397  0.04269056  0.40113526     0.14800
H2608       H  0.61104346  0.11867335  0.32547503     0.14800
C2609       C  0.55883526  0.07297949  0.31041501     0.36500
C2610       C  0.61675642  0.08653668  0.41497288     0.36400
N2611       N  0.54887422  0.07080396  0.28833943    -0.43900
N2612       N  0.62839794  0.08852883  0.43613118    -0.43900
C2613       C  0.88149694  0.39137301  0.35499681    -0.00300
C2614       C  0.89719688  0.40163000  0.32952361    -0.12200
C2615       C  0.92472633  0.42881985  0.32796010     0.02000
C2616       C  0.93743978  0.44589192  0.35231071    -0.00400
C2617       C  0.92135041  0.43625941  0.37760466    -0.12100
C2618       C  0.89359202  0.40926275  0.37915471     0.01800
H2619       H  0.88788469  0.38839319  0.31076193     0.14800
H2620       H  0.93102995  0.44939330  0.39634929     0.14800
C2621       C  0.87901327  0.39956256  0.40611472     0.36500
C2622       C  0.93918079  0.43914067  0.30104851     0.36400
N2623       N  0.86725922  0.39164976  0.42768064    -0.43900
N2624       N  0.95043612  0.44751930  0.27935131    -0.43900
C2625       C  0.89360600  0.01128966  0.36869420    -0.00300
C2626       C  0.91488460  0.02084056  0.39020622    -0.12200
C2627       C  0.94113147  0.01923782  0.38715284     0.02000
C2628       C  0.94678629  0.00875585  0.36186435    -0.00400
C2629       C  0.92495360  0.49861020  0.33568549    -0.12100
C2630       C  0.89856029  0.49979875  0.33934293     0.01800
H2631       H  0.91029214  0.02813700  0.40997303     0.14800
H2632       H  0.92949136  0.49165778  0.31574324     0.14800
C2633       C  0.87834584  0.49195279  0.31596007     0.36500
C2634       C  0.96099757  0.02684886  0.41076764     0.36400
N2635       N  0.86218451  0.48555754  0.29717811    -0.43900
N2636       N  0.97682588  0.03298691  0.42978242    -0.43900
C2637       C  0.60727054  0.99600242  0.36703919    -0.00300
C2638       C  0.60158619  0.50499963  0.34203744    -0.12200
C2639       C  0.57505955  0.50630335  0.34139731     0.02000
C2640       C  0.55236570  0.99571726  0.36003056    -0.00400
C2641       C  0.55914661  0.98706450  0.38559924    -0.12100
C2642       C  0.58623886  0.98710655  0.38927111     0.01800
H2643       H  0.61602818  0.51177435  0.32367572     0.14800
H2644       H  0.54367930  0.98136109  0.40310819     0.14800
C2645       C  0.59273262  0.97993727  0.41657384     0.36500
C2646       C  0.56712138  0.51498934  0.31558378     0.36400
N2647       N  0.59797847  0.97431880  0.43850969    -0.43900
N2648       N  0.56088480  0.52142114  0.29451311    -0.43900
C2649       C  0.49784622  0.44379938  0.37095203    -0.00300
C2650       C  0.49130124  0.43015029  0.39749364    -0.12200
C2651       C  0.49021095  0.40265765  0.40187580     0.02000
C2652       C  0.49573917  0.38837176  0.37932626    -0.00400
C2653       C  0.99478940  0.39685276  0.33785916    -0.12100
C2654       C  0.99646307  0.42449182  0.33289727     0.01800
H2655       H  0.48767692  0.44140568  0.41495160     0.14800
H2656       H  0.00124944  0.38674566  0.32132660     0.14800
C2657       C  0.00472260  0.43746559  0.30527887     0.36500
C2658       C  0.48509428  0.39059134  0.42992439     0.36400
N2659       N  0.01088835  0.44713403  0.28281882    -0.43900
N2660       N  0.48111168  0.38106164  0.45245862    -0.43900
C2661       C  0.66896582  0.21492093  0.35461237    -0.00300
C2662       C  0.64125974  0.21140830  0.34613548    -0.12200
C2663       C  0.63980082  0.23330719  0.33009073     0.02000
C2664       C  0.66663651  0.26011756  0.32247250    -0.00400
C2665       C  0.69418831  0.26476645  0.33300875    -0.12100
C2666       C  0.69553718  0.24240107  0.34862351     0.01800
H2667       H  0.62042836  0.19081808  0.35119925     0.14800
H2668       H  0.71507090  0.28519537  0.32771639     0.14800
C2669       C  0.72462514  0.24727599  0.35623767     0.36500
C2670       C  0.61034321  0.22661074  0.32093794     0.36400
N2671       N  0.74768877  0.25044710  0.36246442    -0.43900
N2672       N  0.58665806  0.22088023  0.31353028    -0.43900
C2673       C  0.54408076  0.33010985  0.35618401    -0.00300
C2674       C  0.53871483  0.30238428  0.34549788    -0.12200
C2675       C  0.55967060  0.30081437  0.32758212     0.02000
C2676       C  0.58690725  0.32746381  0.32017728    -0.00400
C2677       C  0.59284402  0.35481171  0.33232409    -0.12100
C2678       C  0.57200034  0.35636482  0.35006330     0.01800
H2679       H  0.51747483  0.28202876  0.35008581     0.14800
H2680       H  0.61383217  0.37539175  0.32767808     0.14800
C2681       C  0.57998327  0.38540853  0.36165779     0.36500
C2682       C  0.55163956  0.27177333  0.31607564     0.36400
N2683       N  0.58594922  0.40853344  0.37096632    -0.43900
N2684       N  0.54497009  0.24842267  0.30686980    -0.43900
C2685       C  0.73474091  0.40834330  0.32549469    -0.00300
C2686       C  0.75748004  0.40346160  0.33592929    -0.12200
C2687       C  0.78089948  0.42507489  0.35215223     0.02000
C2688       C  0.78241519  0.45273908  0.35777932    -0.00400
C2689       C  0.75809833  0.45635551  0.35017243    -0.12100
C2690       C  0.73422590  0.43440077  0.33431789     0.01800
H2691       H  0.75756913  0.38299061  0.33071163     0.14800
H2692       H  0.75851167  0.47712128  0.35523654     0.14800
C2693       C  0.71057016  0.44020044  0.32644098     0.36500
C2694       C  0.80310365  0.41827855  0.36268573     0.36400
N2695       N  0.69163809  0.44498541  0.32034288    -0.43900
N2696       N  0.82088876  0.41295037  0.37130175    -0.43900
C2697       C  0.90897185  0.17333644  0.30375078    -0.00300
C2698       C  0.90477479  0.14608318  0.31487665    -0.12200
C2699       C  0.92669104  0.14523334  0.33134226     0.02000
C2700       C  0.95413457  0.17209168  0.33675039    -0.00400
C2701       C  0.95727574  0.19966908  0.32792175    -0.12100
C2702       C  0.93492486  0.20057107  0.31185797     0.01800
H2703       H  0.88443283  0.12499602  0.31021998     0.14800
H2704       H  0.97771106  0.22059438  0.33272825     0.14800
C2705       C  0.93972471  0.22974019  0.30374504     0.36500
C2706       C  0.92004232  0.11636807  0.34258402     0.36400
N2707       N  0.94357109  0.25322673  0.29762728    -0.43900
N2708       N  0.91468739  0.09327035  0.35163290    -0.43900
C2709       C  0.76160213  0.09212629  0.30797391    -0.00300
C2710       C  0.73730405  0.09595057  0.31561143    -0.12200
C2711       C  0.71481364  0.07612011  0.33405585     0.02000
C2712       C  0.71571441  0.05097843  0.34496792    -0.00400
C2713       C  0.74140597  0.04870814  0.33947120    -0.12100
C2714       C  0.76437679  0.06907830  0.32146849     0.01800
H2715       H  0.73540375  0.11434979  0.30670538     0.14800
H2716       H  0.74317114  0.03025218  0.34844183     0.14800
C2717       C  0.78996937  0.06512459  0.31705096     0.36500
C2718       C  0.69131394  0.08253559  0.34129807     0.36400
N2719       N  0.81050021  0.06191510  0.31389577    -0.43900
N2720       N  0.67263306  0.08789090  0.34704104    -0.43900
C2721       C  0.82615784  0.24039139  0.29255517    -0.00300
C2722       C  0.81490974  0.23354093  0.31996045    -0.12200
C2723       C  0.81492095  0.25571126  0.33705927     0.02000
C2724       C  0.82598325  0.28523698  0.32652499    -0.00400
C2725       C  0.83667066  0.29174407  0.29888529    -0.12100
C2726       C  0.83665240  0.26967396  0.28186952     0.01800
H2727       H  0.80682479  0.21106294  0.32822863     0.14800
H2728       H  0.84472491  0.31412752  0.29038547     0.14800
C2729       C  0.84629727  0.27734796  0.25311291     0.36500
C2730       C  0.80466685  0.24768288  0.36553443     0.36400
N2731       N  0.85384423  0.28359574  0.23006241    -0.43900
N2732       N  0.79597474  0.24054587  0.38818943    -0.43900
C2733       C  0.59181650  0.33223992  0.19832270    -0.00300
C2734       C  0.56173353  0.30825217  0.19982353    -0.12200
C2735       C  0.53943166  0.30688541  0.18210107     0.02000
C2736       C  0.54689214  0.32973116  0.16204987    -0.00400
C2737       C  0.57690689  0.35357929  0.16022542    -0.12100
C2738       C  0.59931090  0.35500893  0.17794244     0.01800
H2739       H  0.55524088  0.29080711  0.21560665     0.14800
H2740       H  0.58283335  0.37144176  0.14499979     0.14800
C2741       C  0.62969066  0.38001296  0.17451837     0.36500
C2742       C  0.50870358  0.28292458  0.18630349     0.36400
N2743       N  0.65399373  0.40010095  0.17167524    -0.43900
N2744       N  0.48407665  0.26382681  0.18993777    -0.43900
C2745       C  0.82834696  0.23326591  0.17630399    -0.00300
C2746       C  0.85609673  0.25762907  0.16736436    -0.12200
C2747       C  0.85778998  0.28181179  0.15245548     0.02000
C2748       C  0.83110309  0.28178760  0.14506005    -0.00400
C2749       C  0.80319972  0.25624416  0.15174055    -0.12100
C2750       C  0.80153252  0.23224795  0.16739141     0.01800
H2751       H  0.87699037  0.25886792  0.17346561     0.14800
H2752       H  0.78252046  0.25565402  0.14600424     0.14800
C2753       C  0.77195610  0.20751311  0.17456383     0.36500
C2754       C  0.88754361  0.30677654  0.14604262     0.36400
N2755       N  0.74819656  0.18780640  0.18033341    -0.43900
N2756       N  0.91134985  0.32696309  0.14125090    -0.43900
C2757       C  0.95832932  0.16486878  0.15806157    -0.00300
C2758       C  0.95072649  0.18719396  0.15305086    -0.12200
C2759       C  0.92572198  0.18601824  0.16618765     0.02000
C2760       C  0.90764291  0.16206141  0.18462359    -0.00400
C2761       C  0.91371382  0.13866261  0.18798987    -0.12100
C2762       C  0.93861537  0.13971274  0.17517609     0.01800
H2763       H  0.96458582  0.20598381  0.13921000     0.14800
H2764       H  0.89965262  0.11994206  0.20188017     0.14800
C2765       C  0.94250677  0.11414108  0.18021486     0.36500
C2766       C  0.91901088  0.20957551  0.16043802     0.36400
N2767       N  0.94499225  0.09328968  0.18419624    -0.43900
N2768       N  0.91352380  0.22841686  0.15606704    -0.43900
C2769       C  0.67050599  0.21387200  0.16930997    -0.00300
C2770       C  0.69713912  0.23513428  0.18250790    -0.12200
C2771       C  0.69805808  0.25808702  0.19914844     0.02000
C2772       C  0.67186605  0.26055399  0.20246423    -0.00400
C2773       C  0.64578455  0.24019198  0.18778283    -0.12100
C2774       C  0.64481475  0.21704305  0.17157646     0.01800
H2775       H  0.71701870  0.23300806  0.18087148     0.14800
H2776       H  0.62558986  0.24173367  0.18948881     0.14800
C2777       C  0.61702289  0.19697932  0.15742599     0.36500
C2778       C  0.72596704  0.27766059  0.21334886     0.36400
N2779       N  0.59468361  0.18092572  0.14619583    -0.43900
N2780       N  0.74840875  0.29308154  0.22472581    -0.43900
C2781       C  0.70837793  0.03400746  0.15738677    -0.00300
C2782       C  0.73341679  0.03182037  0.16535563    -0.12200
C2783       C  0.75772025  0.05550054  0.17941719     0.02000
C2784       C  0.75724138  0.08224702  0.18579265    -0.00400
C2785       C  0.73328880  0.08521644  0.17558760    -0.12100
C2786       C  0.70903858  0.06158771  0.16174466     0.01800
H2787       H  0.73345235  0.01105334  0.16173994     0.14800
H2788       H  0.73266872  0.10566830  0.17945729     0.14800
C2789       C  0.68495168  0.06637932  0.15283199     0.36500
C2790       C  0.78228343  0.05111012  0.18738956     0.36400
N2791       N  0.66552890  0.07011158  0.14597295    -0.43900
N2792       N  0.80184325  0.04735278  0.19366870    -0.43900
C2793       C  0.79225437  0.46054309  0.17496996    -0.00300
C2794       C  0.79054940  0.43247395  0.17715870    -0.12200
C2795       C  0.76750529  0.40855937  0.19231365     0.02000
C2796       C  0.74501302  0.41230501  0.20585798    -0.00400
C2797       C  0.74678404  0.44048512  0.20355487    -0.12100
C2798       C  0.77026446  0.46451383  0.18879084     0.01800
H2799       H  0.80766273  0.42923492  0.16721464     0.14800
H2800       H  0.73048633  0.44436108  0.21438387     0.14800
C2801       C  0.77254024  0.49352591  0.19056605     0.36500
C2802       C  0.76832324  0.38090614  0.19377735     0.36400
N2803       N  0.84311994  0.93229696  0.17276426    -0.43900
N2804       N  0.76940803  0.35898282  0.19487682    -0.43900
C2805       C  0.56000136  0.05066349  0.14421319    -0.00300
C2806       C  0.56929392  0.06793913  0.16865988    -0.12200
C2807       C  0.59626763  0.09558760  0.16934101     0.02000
C2808       C  0.61488082  0.10604960  0.14530357    -0.00400
C2809       C  0.60627289  0.08792842  0.12128359    -0.12100
C2810       C  0.57891687  0.06060108  0.12044453     0.01800
H2811       H  0.55489345  0.06015734  0.18704703     0.14800
H2812       H  0.62037928  0.09569983  0.10270744     0.14800
C2813       C  0.57024537  0.04397702  0.09459363     0.36500
C2814       C  0.60428949  0.11250460  0.19504204     0.36400
N2815       N  0.56355440  0.03084088  0.07375226    -0.43900
N2816       N  0.61059494  0.12601012  0.21567362    -0.43900
C2817       C  0.01058415  0.06097665  0.13639123    -0.00300
C2818       C  0.01144465  0.07476173  0.16187815    -0.12200
C2819       C  0.01586294  0.10391644  0.16247336     0.02000
C2820       C  0.01910348  0.11944100  0.13716799    -0.00400
C2821       C  0.51520267  0.10221951  0.11371568    -0.12100
C2822       C  0.51212109  0.07359129  0.11467115     0.01800
H2823       H  0.00866292  0.06265837  0.18131065     0.14800
H2824       H  0.51647270  0.11264840  0.09363039     0.14800
C2825       C  0.51098446  0.05866230  0.08879117     0.36500
C2826       C  0.01737348  0.11756751  0.18921897     0.36400
N2827       N  0.50986957  0.04656984  0.06806811    -0.43900
N2828       N  0.01870553  0.12846157  0.21071129    -0.43900
C2829       C  0.55505015  0.49174536  0.14006559    -0.00300
C2830       C  0.55690865  0.97883188  0.11906979    -0.12200
C2831       C  0.58115867  0.97380033  0.11766035     0.02000
C2832       C  0.60774765  0.48818443  0.13414405    -0.00400
C2833       C  0.59941993  0.49417673  0.16030148    -0.12100
C2834       C  0.57320140  0.49577206  0.16346218     0.01800
H2835       H  0.54330019  0.97512384  0.10069309     0.14800
H2836       H  0.61368881  0.49803303  0.17825095     0.14800
C2837       C  0.56556506  0.50181068  0.19081127     0.36500
C2838       C  0.58700244  0.96380247  0.09141018     0.36400
N2839       N  0.55958544  0.50671965  0.21278319    -0.43900
N2840       N  0.59154605  0.95569594  0.07036338    -0.43900
C2841       C  0.99515959  0.43605234  0.14109776    -0.00300
C2842       C  0.98935487  0.42126935  0.11530619    -0.12200
C2843       C  0.98949169  0.39420481  0.11260896     0.02000
C2844       C  0.99572231  0.38153449  0.13604918    -0.00400
C2845       C  0.49970801  0.39861129  0.15939539    -0.12100
C2846       C  0.49771973  0.42458708  0.16238292     0.01800
H2847       H  0.98595585  0.43155660  0.09702210     0.14800
H2848       H  0.50174217  0.38750516  0.17785918     0.14800
C2849       C  0.49786231  0.43570323  0.19008973     0.36500
C2850       C  0.98503251  0.38098307  0.08518583     0.36400
N2851       N  0.49761561  0.44444713  0.21230377    -0.43900
N2852       N  0.98151184  0.37042478  0.06319000    -0.43900
C2853       C  0.88645806  0.39097816  0.13139953    -0.00300
C2854       C  0.90122112  0.40977340  0.10842363    -0.12200
C2855       C  0.92947231  0.43574231  0.11151017     0.02000
C2856       C  0.94294921  0.44361627  0.13809910    -0.00400
C2857       C  0.92782006  0.42541731  0.16124439    -0.12100
C2858       C  0.89980514  0.39914409  0.15809435     0.01800
H2859       H  0.89132086  0.40341610  0.08781152     0.14800
H2860       H  0.93816174  0.43155257  0.18169141     0.14800
C2861       C  0.88503253  0.38110530  0.18258475     0.36500
C2862       C  0.94490326  0.45316969  0.08692672     0.36400
N2863       N  0.87309053  0.36657191  0.20214272    -0.43900
N2864       N  0.95738150  0.46710692  0.06724379    -0.43900
C2865       C  0.95007984  0.50290905  0.14388853    -0.00300
C2866       C  0.94147110  0.01671866  0.11373016    -0.12200
C2867       C  0.91641935  0.02047446  0.11428851     0.02000
C2868       C  0.89676328  0.50567234  0.14308803    -0.00400
C2869       C  0.90792100  0.50148804  0.16841129    -0.12100
C2870       C  0.93443952  0.50016074  0.16897987     0.01800
H2871       H  0.95354039  0.01973538  0.09423323     0.14800
H2872       H  0.89588496  0.49923985  0.18777974     0.14800
C2873       C  0.94522868  0.49594846  0.19543301     0.36500
C2874       C  0.90763516  0.02852248  0.08855808     0.36400
N2875       N  0.95394967  0.49264092  0.21661729    -0.43900
N2876       N  0.90082130  0.03511609  0.06788555    -0.43900
C2877       C  0.83064602  0.09223965  0.44763918    -0.00300
C2878       C  0.80908090  0.06149992  0.45087316    -0.12200
C2879       C  0.80976911  0.03962004  0.43408412     0.02000
C2880       C  0.83173030  0.04838607  0.41279685    -0.00400
C2881       C  0.85275432  0.07913496  0.40888606    -0.12100
C2882       C  0.85258006  0.10104714  0.42614744     0.01800
H2883       H  0.79263155  0.05428082  0.46769127     0.14800
H2884       H  0.86964449  0.08603274  0.39253002     0.14800
C2885       C  0.87531433  0.13221739  0.42135292     0.36500
C2886       C  0.78962006  0.00827323  0.44099135     0.36400
N2887       N  0.89371640  0.15710729  0.41748445    -0.43900
N2888       N  0.76707831  0.48380466  0.43961134    -0.43900
C2889       C  0.83561156  0.05493101  0.10899268    -0.00300
C2890       C  0.80719531  0.04603225  0.09762681    -0.12200
C2891       C  0.80346126  0.06379173  0.07752665     0.02000
C2892       C  0.82847392  0.09166090  0.06896161    -0.00400
C2893       C  0.85634654  0.10146670  0.08184353    -0.12100
C2894       C  0.86026019  0.08348955  0.10126890     0.01800
H2895       H  0.78822761  0.02432319  0.10308107     0.14800
H2896       H  0.87564415  0.12304357  0.07606118     0.14800
C2897       C  0.89037151  0.09482402  0.11168879     0.36500
C2898       C  0.77425654  0.05157463  0.06471786     0.36400
N2899       N  0.91480831  0.10397621  0.11918628    -0.43900
N2900       N  0.75080271  0.04145639  0.05446177    -0.43900
C2901       C  0.71482117  0.16790278  0.41255264    -0.00300
C2902       C  0.72196855  0.14492249  0.41107039    -0.12200
C2903       C  0.74342942  0.14460475  0.42879023     0.02000
C2904       C  0.75841538  0.16771086  0.44879330    -0.00400
C2905       C  0.75195375  0.19127598  0.44961015    -0.12100
C2906       C  0.73026000  0.19141386  0.43200912     0.01800
H2907       H  0.71059054  0.12693831  0.39604499     0.14800
H2908       H  0.76289215  0.20903363  0.46492441     0.14800
C2909       C  0.72265144  0.21462673  0.43600508     0.36500
C2910       C  0.74966353  0.12033768  0.42561175     0.36400
N2911       N  0.71627153  0.23299586  0.43940727    -0.43900
N2912       N  0.75454132  0.10082558  0.42296473    -0.43900
C2913       C  0.90702112  0.24087774  0.44868734    -0.00300
C2914       C  0.93737430  0.24825792  0.44907246    -0.12200
C2915       C  0.95882008  0.27024437  0.43099442     0.02000
C2916       C  0.94988200  0.28470654  0.41137684    -0.00400
C2917       C  0.91958833  0.27708200  0.41069468    -0.12100
C2918       C  0.89828842  0.25563622  0.42906441     0.01800
H2919       H  0.94472389  0.23779809  0.46440201     0.14800
H2920       H  0.91246870  0.28812214  0.39575244     0.14800
C2921       C  0.86769368  0.24946154  0.42721124     0.36500
C2922       C  0.99013588  0.27933889  0.43463023     0.36400
N2923       N  0.84319334  0.24462715  0.42603211    -0.43900
N2924       N  0.51692706  0.29428209  0.45464572    -0.43900
C2925       C  0.71807174  0.16909199  0.11036682    -0.00300
C2926       C  0.72081804  0.14337091  0.10759236    -0.12200
C2927       C  0.74152511  0.14267900  0.08896112     0.02000
C2928       C  0.76008495  0.16814329  0.07210644    -0.00400
C2929       C  0.75876478  0.19461609  0.07620984    -0.12100
C2930       C  0.73807402  0.19527704  0.09508921     0.01800
H2931       H  0.70637196  0.12341467  0.11983114     0.14800
H2932       H  0.77304245  0.21454350  0.06379098     0.14800
C2933       C  0.73657999  0.22246121  0.09718784     0.36500
C2934       C  0.74340696  0.11559868  0.08818018     0.36400
N2935       N  0.73472408  0.24385540  0.09948704    -0.43900
N2936       N  0.74470955  0.09377865  0.08802279    -0.43900
C2937       C  0.95458874  0.27844461  0.10110833    -0.00300
C2938       C  0.92460619  0.27156339  0.10434547    -0.12200
C2939       C  0.90152488  0.24980879  0.08777191     0.02000
C2940       C  0.90835664  0.23475189  0.06697580    -0.00400
C2941       C  0.93804130  0.24029042  0.06479996    -0.12100
C2942       C  0.96112139  0.26193987  0.08158658     0.01800
H2943       H  0.91921326  0.28325790  0.11998297     0.14800
H2944       H  0.94356969  0.22874184  0.04896535     0.14800
C2945       C  0.99150409  0.26826844  0.07676749     0.36500
C2946       C  0.87095487  0.24277601  0.09300626     0.36400
N2947       N  0.01579145  0.27327564  0.07260195    -0.43900
N2948       N  0.84637912  0.23684177  0.09724677    -0.43900
C2949       C  0.54750391  0.22055782  0.38801521    -0.00300
C2950       C  0.57688105  0.22530440  0.38849399    -0.12200
C2951       C  0.59856162  0.24602101  0.40677043     0.02000
C2952       C  0.59075348  0.26193644  0.42594198    -0.00400
C2953       C  0.56189189  0.25860741  0.42421511    -0.12100
C2954       C  0.54036566  0.23828128  0.40544278     0.01800
H2955       H  0.58279124  0.21221171  0.37490964     0.14800
H2956       H  0.55556560  0.27088757  0.43846012     0.14800
C2957       C  0.51056986  0.23450363  0.40610426     0.36500
C2958       C  0.62859985  0.25044278  0.40519212     0.36400
N2959       N  0.98132933  0.21136429  0.42738433    -0.43900
N2960       N  0.65272052  0.25414870  0.40393340    -0.43900
C2961       C  0.54850335  0.21565570  0.09640182    -0.00300
C2962       C  0.55250647  0.20617355  0.07010539    -0.12200
C2963       C  0.57225849  0.22679364  0.05036838     0.02000
C2964       C  0.58860426  0.25786533  0.05664282    -0.00400
C2965       C  0.58426634  0.26764209  0.08278213    -0.12100
C2966       C  0.56467833  0.24669594  0.10283302     0.01800
H2967       H  0.54017736  0.18239293  0.06496630     0.14800
H2968       H  0.59701221  0.29139149  0.08790937     0.14800
C2969       C  0.56334672  0.25721158  0.13042687     0.36500
C2970       C  0.57488574  0.21542871  0.02352147     0.36400
N2971       N  0.56260696  0.26547703  0.15272374    -0.43900
N2972       N  0.57705582  0.20639317  0.00201748    -0.43900
C2973       C  0.67302449  0.40905816  0.43030135    -0.00300
C2974       C  0.69129322  0.43967530  0.43713509    -0.12200
C2975       C  0.69162829  0.46232236  0.42053938     0.02000
C2976       C  0.67363456  0.45448972  0.39643623    -0.00400
C2977       C  0.65663562  0.42404420  0.38872655    -0.12100
C2978       C  0.65620679  0.40133049  0.40537763     0.01800
H2979       H  0.70421814  0.44586565  0.45630316     0.14800
H2980       H  0.64356648  0.41803638  0.36969544     0.14800
C2981       C  0.63900761  0.37041785  0.39617738     0.36500
C2982       C  0.70904242  0.49325755  0.42963506     0.36400
N2983       N  0.62546556  0.34563518  0.38878615    -0.43900
N2984       N  0.72296366  0.51806580  0.43687414    -0.43900
C2985       C  0.77893585  0.32474503  0.39102409    -0.00300
C2986       C  0.76270526  0.33885131  0.38333033    -0.12200
C2987       C  0.74082704  0.33842546  0.40130884     0.02000
C2988       C  0.73509443  0.32373330  0.42743936    -0.00400
C2989       C  0.75019942  0.30830475  0.43438313    -0.12100
C2990       C  0.77212501  0.30886632  0.41654375     0.01800
H2991       H  0.76750316  0.35058958  0.36347163     0.14800
H2992       H  0.74597936  0.29708773  0.45449749     0.14800
C2993       C  0.78889183  0.29498412  0.42595731     0.36500
C2994       C  0.72414166  0.35262542  0.39245602     0.36400
N2995       N  0.80235061  0.28404342  0.43395890    -0.43900
N2996       N  0.71044463  0.36370829  0.38550936    -0.43900
C2997       C  0.67140748  0.45292637  0.09177629    -0.00300
C2998       C  0.64997535  0.44040636  0.07042698    -0.12200
C2999       C  0.64939420  0.41938113  0.05171200     0.02000
C3000       C  0.67058312  0.40965181  0.05401144    -0.00400
C3001       C  0.69253077  0.42239937  0.07513013    -0.12100
C3002       C  0.69302433  0.44376144  0.09401276     0.01800
H3003       H  0.63339051  0.44737210  0.06798346     0.14800
H3004       H  0.70903186  0.41528387  0.07721567     0.14800
C3005       C  0.71498518  0.45481001  0.11607165     0.36500
C3006       C  0.62734740  0.40930245  0.02963478     0.36400
N3007       N  0.73256847  0.46356079  0.13380033    -0.43900
N3008       N  0.64183752  0.42518509  0.48897016    -0.43900
C3009       C  0.78627661  0.33094958  0.08877269    -0.00300
C3010       C  0.77010454  0.30635281  0.07090476    -0.12200
C3011       C  0.74704690  0.30438255  0.05388170     0.02000
C3012       C  0.73989208  0.32759627  0.05433242    -0.00400
C3013       C  0.75608498  0.35222853  0.07213673    -0.12100
C3014       C  0.77899714  0.35410594  0.08923672     0.01800
H3015       H  0.77627256  0.28910945  0.06945305     0.14800
H3016       H  0.75100782  0.37030763  0.07248662     0.14800
C3017       C  0.79478059  0.38029530  0.10679866     0.36500
C3018       C  0.73258234  0.27931928  0.03480609     0.36400
N3019       N  0.80775060  0.40147385  0.12059059    -0.43900
N3020       N  0.72109100  0.25928245  0.01947052    -0.43900
Fe3021     Fe  0.70582916  0.36630624  0.48951017     1.65800
Fe3022     Fe  0.62818911  0.33223278  0.99587318     1.73200
Fe3023     Fe  0.66398954  0.29165711  0.99652391     1.54400
O3024       O  0.69873195  0.30423290  0.96827374    -0.81800
O3025       O  0.60832257  0.30291466  0.52229760    -0.80100
O3026       O  0.72055731  0.35377158  0.96139602    -0.84300
O3027       O  0.72357417  0.34814263  0.51684074    -0.79200
O3028       O  0.63435839  0.27559062  0.96358241    -0.80900
O3029       O  0.64734955  0.36915639  0.51794105    -0.83700
C3030       C  0.71556761  0.32284655  0.52828176     0.97100
C3031       C  0.71763792  0.32825809  0.95579781     1.04500
O3032       O  0.66587937  0.33091710  0.99580934    -1.12700
O3033       O  0.64175283  0.36156614  0.96233480    -0.75100
O3034       O  0.69160168  0.38951033  0.96562295    -0.78600
O3035       O  0.69104018  0.29906430  0.52236288    -0.79300
C3036       C  0.66682825  0.38376498  0.95457288     0.96000
O3037       O  0.69632290  0.38534473  0.52334877    -0.77200
O3038       O  0.60635760  0.29699386  0.96750288    -0.82400
C3039       C  0.60814316  0.27880100  0.52882360     0.98600
C3040       C  0.61213702  0.27814125  0.95604760     1.04500
O3041       O  0.62620227  0.27159564  0.51797551    -0.78100
C3042       C  0.67285602  0.38670124  0.52893206     1.02800
Fe3043     Fe  0.86736612  0.16313565  0.00469713     1.65800
Fe3044     Fe  0.79263674  0.12781704  0.50981207     1.73200
Fe3045     Fe  0.83311727  0.20482159  0.50993267     1.61200
O3046       O  0.86810986  0.22353405  0.53817089    -0.81800
O3047       O  0.77394505  0.14144891  0.97534743    -0.80100
O3048       O  0.88693519  0.19318796  0.54279091    -0.84300
O3049       O  0.88820378  0.19813803  0.97627789    -0.79200
O3050       O  0.80342955  0.19289626  0.54304819    -0.80900
O3051       O  0.80298396  0.10568858  0.97756569    -0.83700
C3052       C  0.88340859  0.21828263  0.96651708     0.97100
C3053       C  0.88584068  0.21642024  0.54971704     1.04500
O3054       O  0.83174289  0.16577390  0.50967671    -1.12700
O3055       O  0.80415753  0.10904106  0.54247197    -0.75100
O3056       O  0.85345749  0.12863758  0.53686419    -0.78600
O3057       O  0.86179819  0.22158383  0.97488184    -0.79300
C3058       C  0.82863908  0.11010940  0.54869482     0.96000
O3059       O  0.85259073  0.13374927  0.97171638    -0.77200
O3060       O  0.77371471  0.14318503  0.53902229    -0.82400
C3061       C  0.77740524  0.16689689  0.96849124     0.98600
C3062       C  0.78056257  0.16815047  0.55043146     1.04500
O3063       O  0.79695207  0.19137838  0.97989908    -0.78100
C3064       C  0.82733201  0.11131871  0.96531631     1.02800
C3065       C  0.97251268  0.50090684  0.62845548     0.02200
C3066       C  0.97027374  0.47248508  0.62684616     0.02200
C3067       C  0.99654310  0.47037359  0.62672413     0.02200
C3068       C  0.53222322  0.49952733  0.62664993     0.02200
C3069       C  0.52739071  0.02070261  0.63262414     0.02200
C3070       C  0.50081525  0.02231318  0.63130056     0.02200
C3071       C  0.81559535  0.48930358  0.65674621     0.80100
N3072       N  0.81181067  0.00467746  0.64116309    -0.78200
C3073       C  0.83561371  0.02530232  0.62543860     0.82500
N3074       N  0.86116846  0.02374078  0.62455635    -0.78200
C3075       C  0.86530572  0.50972323  0.63993361     0.82600
N3076       N  0.84189495  0.48909310  0.65558382    -0.79900
C3077       C  0.68846499  0.01692922  0.63858786     0.80100
N3078       N  0.66012522  0.01221552  0.64088766    -0.78200
C3079       C  0.64389020  0.49624838  0.61928978     0.82500
N3080       N  0.64800391  0.47758314  0.60211549    -0.78200
C3081       C  0.67431624  0.47714995  0.60232364     0.82600
N3082       N  0.69687666  0.49589901  0.61989605    -0.79900
C3083       C  0.69076567  0.16420802  0.62588547     0.80100
N3084       N  0.66473872  0.13724449  0.62577687    -0.78200
C3085       C  0.64051473  0.13312943  0.64065529     0.82500
N3086       N  0.64237710  0.15642863  0.65557878    -0.78200
C3087       C  0.66812869  0.18381518  0.65579834     0.82600
N3088       N  0.69240469  0.18749695  0.64087377    -0.79900
C3089       C  0.98550967  0.16685043  0.63840124     0.80100
N3090       N  0.00505999  0.19023259  0.62163408    -0.78200
C3091       C  0.52098127  0.18404521  0.60193635     0.82500
N3092       N  0.52430709  0.15958103  0.60533029    -0.78200
C3093       C  0.01115031  0.14084585  0.62726824     0.82600
N3094       N  0.98906041  0.14258885  0.64090971    -0.79900
C3095       C  0.80871135  0.32929088  0.60029723     0.80100
N3096       N  0.83362384  0.35717787  0.60224755    -0.78200
C3097       C  0.85704611  0.36168405  0.61832422     0.82500
N3098       N  0.85590464  0.33812524  0.63187057    -0.78200
C3099       C  0.83203193  0.30984479  0.62944606     0.82600
N3100       N  0.80803229  0.30542605  0.61370983    -0.79900
C3101       C  0.52317567  0.32971844  0.64497640     0.80100
N3102       N  0.52386581  0.35653577  0.64396589    -0.78200
C3103       C  0.99963542  0.35977695  0.63034421     0.82500
N3104       N  0.97812351  0.33488309  0.61735291    -0.78200
C3105       C  0.97778530  0.30840423  0.61876773     0.82600
N3106       N  0.99932477  0.30681354  0.63373930    -0.79900
Fe3107     Fe  0.83854810  0.13141043  0.74230898     1.65800
Fe3108     Fe  0.79698289  0.16615208  0.74325788     1.73200
Fe3109     Fe  0.87349977  0.20810508  0.73949243     1.54400
O3110       O  0.89285003  0.19917977  0.77307422    -0.81800
O3111       O  0.80914996  0.20103389  0.71469148    -0.80100
O3112       O  0.87494115  0.14977823  0.76922449    -0.84300
O3113       O  0.86693546  0.14462998  0.70826097    -0.79200
O3114       O  0.85738496  0.22820941  0.76655860    -0.80900
O3115       O  0.78096087  0.13617324  0.71031166    -0.83700
C3116       C  0.88997812  0.16950817  0.70151950     0.97100
C3117       C  0.89302147  0.17536789  0.77982886     1.04500
O3118       O  0.83634461  0.16850137  0.74190492    -1.12700
O3119       O  0.77867217  0.13061502  0.77162017    -0.75100
O3120       O  0.80996310  0.11307952  0.77644574    -0.78600
O3121       O  0.89560186  0.19437211  0.71219382    -0.79300
C3122       C  0.78583350  0.11272347  0.78294197     0.96000
O3123       O  0.80278614  0.10846233  0.71512395    -0.77200
O3124       O  0.80917541  0.19622629  0.77640100    -0.82400
C3125       C  0.83274063  0.21862831  0.70077397     0.98600
C3126       C  0.83333625  0.22131945  0.77995125     1.04500
O3127       O  0.85794497  0.22060330  0.70550354    -0.78100
C3128       C  0.78350351  0.11355578  0.70381619     1.02800
Fe3129     Fe  0.63029800  0.29446896  0.75782941     1.65800
Fe3130     Fe  0.70728695  0.33813521  0.75938254     1.73200
Fe3131     Fe  0.66401356  0.37144274  0.75816627     1.54400
O3132       O  0.63313509  0.35572884  0.72594122    -0.81800
O3133       O  0.72192757  0.36971350  0.79126208    -0.80100
O3134       O  0.61208616  0.30574229  0.72452990    -0.84300
O3135       O  0.60652180  0.30488325  0.78598565    -0.79200
O3136       O  0.69782896  0.39389216  0.72908378    -0.80900
O3137       O  0.69441244  0.30490954  0.78928358    -0.83700
C3138       C  0.60904807  0.32906708  0.79525168     0.97100
C3139       C  0.61466992  0.33025332  0.71548718     1.04500
O3140       O  0.66723006  0.33468774  0.75833232    -1.12700
O3141       O  0.69791769  0.30640746  0.72793902    -0.75100
O3142       O  0.64819198  0.27732710  0.73004763    -0.78600
O3143       O  0.63007929  0.35470313  0.78733701    -0.79300
C3144       C  0.67362185  0.28295013  0.72066635     0.96000
O3145       O  0.64422149  0.27862188  0.79091736    -0.77200
O3146       O  0.72570343  0.37206054  0.72971678    -0.82400
C3147       C  0.71557967  0.38904585  0.80060310     0.98600
C3148       C  0.72040374  0.39221831  0.72092104     1.04500
O3149       O  0.69428747  0.39175449  0.79052883    -0.78100
C3150       C  0.66981434  0.28382151  0.79928411     1.02800
C3151       C  0.97417588  0.00380692  0.85423318     0.02200
C3152       C  0.97045457  0.47609941  0.86550203     0.02200
C3153       C  0.49396033  0.47062028  0.86368497     0.02200
C3154       C  0.52648277  0.99621412  0.85692284     0.02200
C3155       C  0.52921680  0.02508106  0.85637492     0.02200
C3156       C  0.50298383  0.02761770  0.85730130     0.02200
C3157       C  0.69017813  0.01912739  0.85164123     0.80100
N3158       N  0.66239866  0.01603851  0.84942892    -0.78200
C3159       C  0.63810882  0.99350070  0.86284170     0.82500
N3160       N  0.63451716  0.46793440  0.87868017    -0.78200
C3161       C  0.66207686  0.47045352  0.88035065     0.82600
N3162       N  0.69340040  0.99868346  0.86723416    -0.79900
C3163       C  0.80884895  0.48115640  0.86924842     0.80100
N3164       N  0.83634634  0.48414519  0.86494291    -0.78200
C3165       C  0.86451877  0.00645853  0.87422990     0.82500
N3166       N  0.86156616  0.02699621  0.88973481    -0.78200
C3167       C  0.83361199  0.02280196  0.89517476     0.82600
N3168       N  0.80881474  0.99789122  0.88512188    -0.79900
C3169       C  0.98422069  0.17293818  0.84811392     0.80100
N3170       N  0.00503772  0.19636019  0.86360811    -0.78200
C3171       C  0.52597933  0.19147757  0.87684352     0.82500
N3172       N  0.52694589  0.16563825  0.87541913    -0.78200
C3173       C  0.00796080  0.14508398  0.85885531     0.82600
N3174       N  0.98605118  0.14758782  0.84570616    -0.79900
C3175       C  0.68975018  0.16648216  0.89237268     0.80100
N3176       N  0.66486349  0.13919805  0.88764932    -0.78200
C3177       C  0.64183458  0.13689850  0.87202226     0.82500
N3178       N  0.64399829  0.16217412  0.86075008    -0.78200
C3179       C  0.66888309  0.18953541  0.86503916     0.82600
N3180       N  0.69177369  0.19165538  0.88084079    -0.79900
C3181       C  0.51469416  0.33062861  0.86050355     0.80100
N3182       N  0.51139785  0.35502511  0.85790319    -0.78200
C3183       C  0.48862903  0.35622728  0.87086059     0.82500
N3184       N  0.96896311  0.33508859  0.88944305    -0.78200
C3185       C  0.97173243  0.31041341  0.89320176     0.82600
N3186       N  0.49426835  0.30670714  0.87600299    -0.79900
C3187       C  0.80810033  0.32966113  0.88329290     0.80100
N3188       N  0.83327206  0.35738701  0.88287700    -0.78200
C3189       C  0.85811751  0.36222918  0.86854133     0.82500
N3190       N  0.85743935  0.33917484  0.85416361    -0.78200
C3191       C  0.83248344  0.31115529  0.85430089     0.82600
N3192       N  0.80771549  0.30647658  0.86909295    -0.79900
C3193       C  0.50553929  0.05772684  0.85739712    -0.00300
C3194       C  0.01864637  0.07864893  0.87639834    -0.12200
C3195       C  0.02027505  0.10656322  0.87859711     0.02000
C3196       C  0.00863289  0.11656264  0.85700044    -0.00400
C3197       C  0.49645380  0.09530801  0.83620136    -0.12100
C3198       C  0.49591336  0.06793527  0.83451954     0.01800
H3199       H  0.02675803  0.07076752  0.89346373     0.14800
H3200       H  0.48871341  0.10273465  0.81860466     0.14800
C3201       C  0.48580922  0.05101790  0.80888565     0.36500
C3202       C  0.03283741  0.12361074  0.90385577     0.36400
N3203       N  0.47781816  0.03767761  0.78820644    -0.43900
N3204       N  0.04298584  0.13722485  0.92411204    -0.43900
C3205       C  0.55952227  0.05271965  0.85886316    -0.00300
C3206       C  0.57420771  0.05863031  0.88467322    -0.12200
C3207       C  0.60136939  0.08545919  0.88921451     0.02000
C3208       C  0.61425307  0.10724966  0.86765546    -0.00400
C3209       C  0.59983527  0.10105183  0.84163694    -0.12100
C3210       C  0.57284383  0.07399511  0.83701481     0.01800
H3211       H  0.56383434  0.04249616  0.90168378     0.14800
H3212       H  0.60973985  0.11746301  0.82478043     0.14800
C3213       C  0.55950318  0.06863365  0.80966482     0.36500
C3214       C  0.61453054  0.09072277  0.91668298     0.36400
N3215       N  0.54935189  0.06466102  0.78749046    -0.43900
N3216       N  0.62515537  0.09503210  0.93867164    -0.43900
C3217       C  0.88566172  0.39243218  0.86799632    -0.00300
C3218       C  0.90128156  0.40334014  0.84256701    -0.12200
C3219       C  0.92804764  0.43122509  0.84112508     0.02000
C3220       C  0.94033388  0.44808123  0.86563802    -0.00400
C3221       C  0.92439476  0.43773572  0.89091232    -0.12100
C3222       C  0.89703416  0.41035435  0.89223316     0.01800
H3223       H  0.89228883  0.39022550  0.82367128     0.14800
H3224       H  0.93369163  0.45086491  0.90974591     0.14800
C3225       C  0.88180551  0.40080153  0.91891314     0.36500
C3226       C  0.94190638  0.44267061  0.81417263     0.36400
N3227       N  0.86962452  0.39338791  0.94033580    -0.43900
N3228       N  0.95263531  0.45205543  0.79247235    -0.43900
C3229       C  0.89429399  0.00972822  0.86807400    -0.00300
C3230       C  0.91533786  0.01738504  0.88960116    -0.12200
C3231       C  0.94154676  0.01581895  0.88543948     0.02000
C3232       C  0.94712827  0.00679307  0.85926807    -0.00400
C3233       C  0.92667732  0.50084675  0.84589008    -0.12100
C3234       C  0.89988753  0.50165749  0.84742803     0.01800
H3235       H  0.91063638  0.02320609  0.91003201     0.14800
H3236       H  0.93369982  0.49598300  0.82615408     0.14800
C3237       C  0.88257969  0.49622658  0.82224531     0.36500
C3238       C  0.96157879  0.02199950  0.90870420     0.36400
N3239       N  0.86873397  0.49186842  0.80203736    -0.43900
N3240       N  0.97767060  0.02695030  0.92732413    -0.43900
C3241       C  0.60844089  0.99197427  0.86132345    -0.00300
C3242       C  0.59464483  0.49874751  0.84007303    -0.12200
C3243       C  0.56897386  0.50144500  0.83934493     0.02000
C3244       C  0.55417823  0.99355585  0.85756898    -0.00400
C3245       C  0.56250902  0.98592748  0.88280441    -0.12100
C3246       C  0.58913219  0.98479409  0.88481846     0.01800
H3247       H  0.60916522  0.50511525  0.82176586     0.14800
H3248       H  0.54839792  0.98140978  0.90116790     0.14800
C3249       C  0.59669811  0.97761774  0.91162537     0.36500
C3250       C  0.56227219  0.51160538  0.81372170     0.36400
N3251       N  0.60270738  0.97180141  0.93312054    -0.43900
N3252       N  0.55715567  0.51932446  0.79277591    -0.43900
C3253       C  0.49088382  0.44035559  0.86463455    -0.00300
C3254       C  0.48332445  0.42483288  0.89022718    -0.12200
C3255       C  0.48133539  0.39679441  0.89261129     0.02000
C3256       C  0.48733687  0.38411700  0.86905282    -0.00400
C3257       C  0.99848867  0.40295649  0.84603541    -0.12100
C3258       C  0.00085495  0.43109768  0.84301966     0.01800
H3259       H  0.47956337  0.43499211  0.90847881     0.14800
H3260       H  0.00430401  0.39347415  0.82852170     0.14800
C3261       C  0.00932349  0.44563073  0.81602986     0.36500
C3262       C  0.47475533  0.38242921  0.91973801     0.36400
N3263       N  0.01574713  0.45650333  0.79402296    -0.43900
N3264       N  0.46947268  0.37089076  0.94146827    -0.43900
C3265       C  0.67141796  0.21642951  0.85125527    -0.00300
C3266       C  0.64850940  0.22336373  0.85518712    -0.12200
C3267       C  0.64846615  0.24666096  0.83988702     0.02000
C3268       C  0.67134058  0.26298296  0.81983224    -0.00400
C3269       C  0.69498792  0.25690341  0.81705447    -0.12100
C3270       C  0.69509188  0.23378527  0.83237068     0.01800
H3271       H  0.63041165  0.21024432  0.86990517     0.14800
H3272       H  0.71256646  0.26899197  0.80157650     0.14800
C3273       C  0.71807006  0.22635013  0.82617590     0.36500
C3274       C  0.62509983  0.25372197  0.84536843     0.36400
N3275       N  0.73621559  0.22013075  0.82082974    -0.43900
N3276       N  0.60669893  0.25985375  0.84972388    -0.43900
C3277       C  0.54028639  0.33031352  0.84634817    -0.00300
C3278       C  0.53793914  0.30252624  0.83995983    -0.12200
C3279       C  0.56029848  0.30110025  0.82428311     0.02000
C3280       C  0.58609069  0.32810798  0.81500098    -0.00400
C3281       C  0.58909151  0.35579872  0.82297038    -0.12100
C3282       C  0.56662959  0.35722694  0.83802239     0.01800
H3283       H  0.51796247  0.28171434  0.84620686     0.14800
H3284       H  0.60873270  0.37683691  0.81656500     0.14800
C3285       C  0.57145507  0.38694601  0.84383468     0.36500
C3286       C  0.55529412  0.27154094  0.81751667     0.36400
N3287       N  0.57541085  0.41084685  0.84803957    -0.43900
N3288       N  0.55084614  0.24766732  0.81222936    -0.43900
C3289       C  0.73524285  0.41019740  0.82299549    -0.00300
C3290       C  0.75807703  0.40591580  0.83414042    -0.12200
C3291       C  0.78076172  0.42769129  0.85099198     0.02000
C3292       C  0.78176121  0.45519869  0.85648670    -0.00400
C3293       C  0.75730615  0.45825178  0.84805428    -0.12100
C3294       C  0.73387684  0.43588438  0.83188778     0.01800
H3295       H  0.75875714  0.38568446  0.82920804     0.14800
H3296       H  0.75696422  0.47861419  0.85323689     0.14800
C3297       C  0.70905705  0.44023803  0.82487685     0.36500
C3298       C  0.80257206  0.42099273  0.86271184     0.36400
N3299       N  0.68908620  0.44377648  0.81976218    -0.43900
N3300       N  0.82012586  0.41592564  0.87238430    -0.43900
C3301       C  0.91546728  0.17693955  0.80030813    -0.00300
C3302       C  0.90908466  0.15030322  0.81431937    -0.12200
C3303       C  0.93066565  0.14886813  0.83077071     0.02000
C3304       C  0.95957170  0.17463823  0.83383541    -0.00400
C3305       C  0.96541141  0.20188224  0.82149215    -0.12100
C3306       C  0.94394459  0.20322213  0.80449021     0.01800
H3307       H  0.88720338  0.13006772  0.81187694     0.14800
H3308       H  0.98741566  0.22190955  0.82395911     0.14800
C3309       C  0.95276992  0.23126988  0.79016343     0.36500
C3310       C  0.92237655  0.12050273  0.84421565     0.36400
N3311       N  0.96013263  0.25379191  0.77865445    -0.43900
N3312       N  0.91582450  0.09773943  0.85483931    -0.43900
C3313       C  0.76418536  0.09002860  0.80361194    -0.00300
C3314       C  0.74095043  0.09409128  0.81423278    -0.12200
C3315       C  0.71744769  0.07198458  0.83052653     0.02000
C3316       C  0.71647965  0.04455111  0.83679663    -0.00400
C3317       C  0.74056337  0.04104798  0.82759639    -0.12100
C3318       C  0.76418871  0.06328797  0.81114423     0.01800
H3319       H  0.74070770  0.11457231  0.80935638     0.14800
H3320       H  0.74040900  0.02034507  0.83236377     0.14800
C3321       C  0.78724236  0.05721875  0.80147076     0.36500
C3322       C  0.69481942  0.07852348  0.84056595     0.36400
N3323       N  0.80567019  0.05223984  0.79381831    -0.43900
N3324       N  0.67674951  0.08391579  0.84843664    -0.43900
C3325       C  0.83363984  0.24402932  0.79974258    -0.00300
C3326       C  0.81304160  0.23469201  0.82224609    -0.12200
C3327       C  0.81236509  0.25572545  0.84069741     0.02000
C3328       C  0.83235027  0.28703633  0.83661817    -0.00400
C3329       C  0.85308016  0.29614642  0.81432060    -0.12100
C3330       C  0.85387138  0.27535681  0.79604958     0.01800
H3331       H  0.79749578  0.21080140  0.82560205     0.14800
H3332       H  0.86852254  0.31997185  0.81050355     0.14800
C3333       C  0.87488726  0.28736089  0.77287341     0.36500
C3334       C  0.79145477  0.24434915  0.86390332     0.36400
N3335       N  0.89172388  0.29714326  0.75433877    -0.43900
N3336       N  0.77457425  0.23503340  0.88241981    -0.43900
C3337       C  0.59371487  0.32892368  0.69327951    -0.00300
C3338       C  0.56573693  0.30225730  0.69025588    -0.12200
C3339       C  0.54283331  0.30144617  0.67381258     0.02000
C3340       C  0.54757761  0.32778544  0.65983746    -0.00400
C3341       C  0.57631959  0.35374971  0.66111950    -0.12100
C3342       C  0.59931128  0.35448797  0.67731908     0.01800
H3343       H  0.56101521  0.28227752  0.70203181     0.14800
H3344       H  0.58080629  0.37384838  0.64967693     0.14800
C3345       C  0.62836902  0.38184661  0.67699485     0.36500
C3346       C  0.51418102  0.27377642  0.67350455     0.36400
N3347       N  0.65163130  0.40378993  0.67657528    -0.43900
N3348       N  0.49136706  0.25138514  0.67360777    -0.43900
C3349       C  0.83171767  0.23929029  0.67946452    -0.00300
C3350       C  0.85890785  0.26540953  0.67247113    -0.12200
C3351       C  0.85966040  0.28788711  0.65556330     0.02000
C3352       C  0.83246462  0.28475419  0.64488336    -0.00400
C3353       C  0.80534912  0.25771685  0.65037969    -0.12100
C3354       C  0.80473922  0.23506888  0.66741144     0.01800
H3355       H  0.87994105  0.26897982  0.68109023     0.14800
H3356       H  0.78437310  0.25449577  0.64197426     0.14800
C3357       C  0.77620620  0.20769126  0.67175083     0.36500
C3358       C  0.88903772  0.31396231  0.65015985     0.36400
N3359       N  0.75334558  0.18569232  0.67506749    -0.43900
N3360       N  0.91262016  0.33483557  0.64613925    -0.43900
C3361       C  0.95985268  0.16691309  0.65338109    -0.00300
C3362       C  0.95502047  0.19144641  0.65002916    -0.12200
C3363       C  0.93151916  0.19239258  0.66436020     0.02000
C3364       C  0.91248176  0.16866443  0.68262988    -0.00400
C3365       C  0.91649133  0.14383671  0.68511917    -0.12100
C3366       C  0.93951807  0.14255581  0.67095015     0.01800
H3367       H  0.96954482  0.20995457  0.63624518     0.14800
H3368       H  0.90197308  0.12543414  0.69908924     0.14800
C3369       C  0.94090777  0.11547856  0.67546138     0.36500
C3370       C  0.92655615  0.21721740  0.65929486     0.36400
N3371       N  0.94115417  0.09335776  0.67921482    -0.43900
N3372       N  0.92196348  0.23674792  0.65540053    -0.43900
C3373       C  0.66950678  0.20966138  0.67157946    -0.00300
C3374       C  0.69771650  0.23538988  0.67717212    -0.12200
C3375       C  0.70013112  0.25992256  0.69248906     0.02000
C3376       C  0.67378076  0.25968696  0.70177751    -0.00400
C3377       C  0.64569927  0.23429265  0.69531015    -0.12100
C3378       C  0.64328766  0.20937557  0.68127801     0.01800
H3379       H  0.71816218  0.23605061  0.67031337     0.14800
H3380       H  0.62503003  0.23314096  0.70217358     0.14800
C3381       C  0.61325446  0.18378021  0.67803074     0.36500
C3382       C  0.72998728  0.28410561  0.69918636     0.36400
N3383       N  0.58908419  0.16339062  0.67573442    -0.43900
N3384       N  0.75412839  0.30308788  0.70457603    -0.43900
C3385       C  0.71369087  0.04329324  0.65341332    -0.00300
C3386       C  0.74290538  0.04727631  0.65320186    -0.12200
C3387       C  0.76660102  0.07085644  0.66817624     0.02000
C3388       C  0.76133630  0.09105831  0.68394657    -0.00400
C3389       C  0.73282799  0.08817813  0.68278553    -0.12100
C3390       C  0.70922095  0.06488766  0.66805639     0.01800
H3391       H  0.74728672  0.03175598  0.64161446     0.14800
H3392       H  0.72842911  0.10361699  0.69452007     0.14800
C3393       C  0.68073590  0.06410176  0.66932287     0.36500
C3394       C  0.79618134  0.07422111  0.66645648     0.36400
N3395       N  0.65811174  0.06380264  0.67071109    -0.43900
N3396       N  0.81995878  0.07707624  0.66505856    -0.43900
C3397       C  0.78957499  0.46467237  0.67177058    -0.00300
C3398       C  0.78515871  0.43550457  0.66969172    -0.12200
C3399       C  0.76197983  0.41129910  0.68433835     0.02000
C3400       C  0.74251930  0.41601319  0.70179559    -0.00400
C3401       C  0.74636245  0.44515110  0.70319198    -0.12100
C3402       C  0.76977003  0.46944712  0.68855069     0.01800
H3403       H  0.80017210  0.43165041  0.65667523     0.14800
H3404       H  0.73197358  0.44933985  0.71683844     0.14800
C3405       C  0.77440644  0.49929580  0.69288563     0.36500
C3406       C  0.75884387  0.38196122  0.68089400     0.36400
N3407       N  0.79147795  0.02224208  0.70702720    -0.43900
N3408       N  0.75650420  0.35853340  0.67801850    -0.43900
C3409       C  0.55704774  0.04896030  0.63431199    -0.00300
C3410       C  0.56563426  0.06394890  0.65999784    -0.12200
C3411       C  0.59293442  0.09103518  0.66273829     0.02000
C3412       C  0.61192736  0.10394073  0.63921753    -0.00400
C3413       C  0.60342239  0.08866657  0.61354049    -0.12100
C3414       C  0.57623037  0.06136551  0.61092739     0.01800
H3415       H  0.55092471  0.05425521  0.67806464     0.14800
H3416       H  0.61786317  0.09833387  0.59530892     0.14800
C3417       C  0.56837042  0.04676969  0.58404392     0.36500
C3418       C  0.60154411  0.10421016  0.69016997     0.36400
N3419       N  0.56228956  0.03513409  0.56244738    -0.43900
N3420       N  0.60850982  0.11458014  0.71222939    -0.43900
C3421       C  0.00613541  0.05503579  0.63257752    -0.00300
C3422       C  0.00541329  0.06967092  0.65697696    -0.12200
C3423       C  0.00903912  0.09853423  0.65576003     0.02000
C3424       C  0.01252463  0.11286084  0.62964969    -0.00400
C3425       C  0.50784772  0.09384403  0.60042085    -0.12100
C3426       C  0.50561942  0.06560623  0.60218319     0.01800
H3427       H  0.00242727  0.05861243  0.67710290     0.14800
H3428       H  0.50893929  0.10368015  0.58006103     0.14800
C3429       C  0.50470615  0.05032778  0.57661463     0.36500
C3430       C  0.01022719  0.11352497  0.68161461     0.36400
N3431       N  0.50353840  0.03808306  0.55597681    -0.43900
N3432       N  0.01133424  0.12573226  0.70226187    -0.43900
C3433       C  0.56090432  0.49863815  0.62508598    -0.00300
C3434       C  0.56164075  0.98265028  0.60766496    -0.12200
C3435       C  0.58799055  0.98118303  0.60535294     0.02000
C3436       C  0.61484737  0.49627906  0.62038213    -0.00400
C3437       C  0.60702979  0.50503429  0.64545700    -0.12100
C3438       C  0.58050269  0.50618909  0.64799947     0.01800
H3439       H  0.54762306  0.97843129  0.58940431     0.14800
H3440       H  0.62159310  0.51086622  0.66336292     0.14800
C3441       C  0.57392893  0.51481207  0.67460417     0.36500
C3442       C  0.59590774  0.97527544  0.57809566     0.36400
N3443       N  0.56914993  0.52187708  0.69610429    -0.43900
N3444       N  0.60164475  0.97069015  0.55589950    -0.43900
C3445       C  0.99450935  0.44053856  0.62821578    -0.00300
C3446       C  0.99082874  0.42445597  0.60354508    -0.12200
C3447       C  0.99236014  0.39805267  0.60379803     0.02000
C3448       C  0.99846130  0.38785014  0.62903625    -0.00400
C3449       C  0.50808339  0.40482639  0.65326295    -0.12100
C3450       C  0.50764421  0.43182166  0.65296944     0.01800
H3451       H  0.98747916  0.43296057  0.58397492     0.14800
H3452       H  0.51151918  0.39635405  0.67282005     0.14800
C3453       C  0.51068542  0.44704363  0.67910757     0.36500
C3454       C  0.98857381  0.38243587  0.57772520     0.36400
N3455       N  0.51275943  0.45880860  0.70025839    -0.43900
N3456       N  0.98539071  0.36978149  0.55689207    -0.43900
C3457       C  0.88413961  0.39166313  0.62082154    -0.00300
C3458       C  0.89904646  0.40755448  0.59649110    -0.12200
C3459       C  0.92701442  0.43415206  0.59812999     0.02000
C3460       C  0.94033622  0.44493858  0.62442865    -0.00400
C3461       C  0.92503668  0.42961407  0.64874667    -0.12100
C3462       C  0.89689723  0.40334587  0.64716513     0.01800
H3463       H  0.88932972  0.39864021  0.57618871     0.14800
H3464       H  0.93514406  0.43818148  0.66896816     0.14800
C3465       C  0.88104730  0.38934701  0.67283170     0.36500
C3466       C  0.94205385  0.44966314  0.57264313     0.36400
N3467       N  0.86817130  0.37834238  0.69338899    -0.43900
N3468       N  0.95423396  0.46215141  0.55228052    -0.43900
C3469       C  0.94494431  0.50306972  0.63174549    -0.00300
C3470       C  0.93744566  0.00937408  0.61344339    -0.12200
C3471       C  0.91076529  0.01040400  0.61356064     0.02000
C3472       C  0.89290959  0.50785211  0.63684538    -0.00400
C3473       C  0.90593499  0.50318381  0.66062028    -0.12100
C3474       C  0.93190872  0.50097183  0.65826827     0.01800
H3475       H  0.95093560  0.01519632  0.59451524     0.14800
H3476       H  0.89595716  0.50153299  0.68105663     0.14800
C3477       C  0.94484252  0.49651219  0.68324232     0.36500
C3478       C  0.90276537  0.01973623  0.58812843     0.36400
N3479       N  0.95521306  0.49276951  0.70316587    -0.43900
N3480       N  0.89660836  0.02743729  0.56772766    -0.43900
C3481       C  0.82681244  0.08975822  0.94420163    -0.00300
C3482       C  0.80466461  0.05911644  0.94669414    -0.12200
C3483       C  0.80624155  0.03703821  0.93081613     0.02000
C3484       C  0.83018881  0.04542933  0.91158823    -0.00400
C3485       C  0.85149016  0.07612920  0.90807241    -0.12100
C3486       C  0.84996323  0.09824333  0.92392050     0.01800
H3487       H  0.78693430  0.05210380  0.96225643     0.14800
H3488       H  0.86951242  0.08291020  0.89289504     0.14800
C3489       C  0.87244922  0.12940398  0.91868576     0.36500
C3490       C  0.78433530  0.00579270  0.93634235     0.36400
N3491       N  0.89053206  0.15429684  0.91431706    -0.43900
N3492       N  0.77113175  0.48284235  0.94687228    -0.43900
C3493       C  0.83357192  0.04843707  0.60802756    -0.00300
C3494       C  0.80536702  0.04249931  0.59820901    -0.12200
C3495       C  0.80281654  0.06214441  0.57935541     0.02000
C3496       C  0.82892980  0.08904220  0.57030088    -0.00400
C3497       C  0.85689422  0.09547450  0.58117203    -0.12100
C3498       C  0.85952087  0.07568450  0.59948432     0.01800
H3499       H  0.78520938  0.02170461  0.60433175     0.14800
H3500       H  0.87723428  0.11604625  0.57494157     0.14800
C3501       C  0.88947332  0.08420954  0.60872878     0.36500
C3502       C  0.77325456  0.05292349  0.56859395     0.36400
N3503       N  0.91364317  0.09111534  0.61561259    -0.43900
N3504       N  0.74942716  0.04511404  0.56003224    -0.43900
C3505       C  0.71397778  0.16844444  0.91051155    -0.00300
C3506       C  0.72238738  0.14648527  0.90789902    -0.12200
C3507       C  0.74366068  0.14607265  0.92580758     0.02000
C3508       C  0.75698061  0.16797013  0.94711853    -0.00400
C3509       C  0.74910613  0.19044237  0.94918258    -0.12100
C3510       C  0.72766187  0.19068162  0.93135699     0.01800
H3511       H  0.71216313  0.12943456  0.89182258     0.14800
H3512       H  0.75875300  0.20717052  0.96557735     0.14800
C3513       C  0.71852066  0.21263866  0.93623444     0.36500
C3514       C  0.75158452  0.12311399  0.92149156     0.36400
N3515       N  0.71090914  0.23000461  0.94018176    -0.43900
N3516       N  0.75789189  0.10470002  0.91798849    -0.43900
C3517       C  0.90517192  0.23993182  0.94580998    -0.00300
C3518       C  0.93596285  0.25017726  0.94955612    -0.12200
C3519       C  0.95797590  0.27300017  0.93262272     0.02000
C3520       C  0.94928247  0.28525718  0.91069735    -0.00400
C3521       C  0.91852200  0.27472829  0.90657203    -0.12100
C3522       C  0.89648178  0.25235847  0.92391799     0.01800
H3523       H  0.94300321  0.24142203  0.96677214     0.14800
H3524       H  0.91169750  0.28425002  0.88983761     0.14800
C3525       C  0.86521230  0.24241341  0.91857860     0.36500
C3526       C  0.98928069  0.28530431  0.93977377     0.36400
N3527       N  0.84018860  0.23452479  0.91423790    -0.43900
N3528       N  0.51553308  0.29462929  0.94033444    -0.43900
C3529       C  0.71655519  0.16760958  0.60913814    -0.00300
C3530       C  0.72137151  0.14311900  0.60798251    -0.12200
C3531       C  0.74311563  0.14345818  0.59015511     0.02000
C3532       C  0.76029972  0.16852794  0.57244437    -0.00400
C3533       C  0.75649617  0.19374509  0.57460009    -0.12100
C3534       C  0.73483668  0.19344294  0.59277480     0.01800
H3535       H  0.70787945  0.12343114  0.62101228     0.14800
H3536       H  0.76952226  0.21321788  0.56122705     0.14800
C3537       C  0.73024135  0.21889102  0.59299656     0.36500
C3538       C  0.74771915  0.11802677  0.59119422     0.36400
N3539       N  0.72571177  0.23873857  0.59385399    -0.43900
N3540       N  0.75133099  0.09761254  0.59253250    -0.43900
C3541       C  0.95343145  0.28191274  0.60424862    -0.00300
C3542       C  0.92549221  0.28030212  0.60163371    -0.12200
C3543       C  0.90251484  0.25822696  0.58540900     0.02000
C3544       C  0.90728522  0.23699498  0.57097516    -0.00400
C3545       C  0.93457244  0.23736084  0.57503105    -0.12100
C3546       C  0.95760469  0.25957954  0.59139671     0.01800
H3547       H  0.92170553  0.29689005  0.61196513     0.14800
H3548       H  0.93863496  0.22118758  0.56420721     0.14800
C3549       C  0.98584000  0.26006999  0.59292327     0.36500
C3550       C  0.87450526  0.25831845  0.58392421     0.36400
N3551       N  0.00848551  0.26046034  0.59405740    -0.43900
N3552       N  0.85217998  0.25860088  0.58279337    -0.43900
C3553       C  0.54918825  0.21654875  0.89434902    -0.00300
C3554       C  0.57510401  0.21543246  0.90155025    -0.12200
C3555       C  0.59605146  0.23537258  0.92076178     0.02000
C3556       C  0.59176914  0.25786020  0.93350358    -0.00400
C3557       C  0.56657101  0.26000087  0.92524579    -0.12100
C3558       C  0.54541319  0.23965505  0.90601775     0.01800
H3559       H  0.57891239  0.19828714  0.89251444     0.14800
H3560       H  0.56277083  0.27704798  0.93444579     0.14800
C3561       C  0.51920317  0.24187289  0.89983479     0.36500
C3562       C  0.62103545  0.23107490  0.92734427     0.36400
N3563       N  0.99025285  0.23352075  0.90704743    -0.43900
N3564       N  0.64085104  0.22732187  0.93255907    -0.43900
C3565       C  0.54359227  0.21015284  0.58490828    -0.00300
C3566       C  0.53390656  0.22379401  0.56533286    -0.12200
C3567       C  0.55459186  0.24708968  0.54760324     0.02000
C3568       C  0.58574407  0.25733356  0.54941778    -0.00400
C3569       C  0.59538288  0.24393476  0.56919820    -0.12100
C3570       C  0.57481743  0.22066526  0.58673120     0.01800
H3571       H  0.50999306  0.21536922  0.56305876     0.14800
H3572       H  0.61916327  0.25130884  0.57058244     0.14800
C3573       C  0.58664113  0.20787413  0.60615361     0.36500
C3574       C  0.54304892  0.25832196  0.52624686     0.36400
N3575       N  0.59650206  0.19765523  0.62135865    -0.43900
N3576       N  0.53377542  0.26714150  0.50896940    -0.43900
C3577       C  0.66704892  0.40472918  0.93280824    -0.00300
C3578       C  0.69070650  0.43497396  0.93266797    -0.12200
C3579       C  0.69009150  0.45657184  0.91515610     0.02000
C3580       C  0.66554249  0.44806299  0.89703772    -0.00400
C3581       C  0.64254996  0.41771981  0.89627317    -0.12100
C3582       C  0.64310086  0.39608975  0.91370449     0.01800
H3583       H  0.70906621  0.44217079  0.94732122     0.14800
H3584       H  0.62379976  0.41089707  0.88215195     0.14800
C3585       C  0.61872951  0.36528087  0.91127990     0.36500
C3586       C  0.71357887  0.48772554  0.91784432     0.36400
N3587       N  0.59910153  0.34067602  0.90913921    -0.43900
N3588       N  0.73202751  0.51285262  0.91980382    -0.43900
C3589       C  0.78167804  0.32538635  0.89945588    -0.00300
C3590       C  0.76896884  0.34317889  0.89277053    -0.12200
C3591       C  0.74737836  0.34387367  0.91029385     0.02000
C3592       C  0.73802436  0.32629895  0.93494977    -0.00400
C3593       C  0.74959616  0.30724389  0.94076602    -0.12100
C3594       C  0.77144471  0.30686850  0.92341379     0.01800
H3595       H  0.77634365  0.35693086  0.87405162     0.14800
H3596       H  0.74270746  0.29374980  0.95969760     0.14800
C3597       C  0.78470917  0.28916443  0.93180979     0.36500
C3598       C  0.73496670  0.36250540  0.90243935     0.36400
N3599       N  0.79546454  0.27513539  0.93868072    -0.43900
N3600       N  0.72483751  0.37731457  0.89630362    -0.43900
C3601       C  0.67763235  0.45608511  0.58328215    -0.00300
C3602       C  0.66497622  0.45153090  0.55658698    -0.12200
C3603       C  0.66392401  0.42957101  0.53868539     0.02000
C3604       C  0.67544369  0.41110765  0.54738016    -0.00400
C3605       C  0.68983476  0.41673100  0.57339643    -0.12100
C3606       C  0.69096652  0.43896753  0.59140586     0.01800
H3607       H  0.65565362  0.46524057  0.54962899     0.14800
H3608       H  0.69938109  0.40311880  0.58001688     0.14800
C3609       C  0.70452143  0.44261772  0.61851432     0.36500
C3610       C  0.65161644  0.42705963  0.51108374     0.36400
N3611       N  0.71541310  0.44549971  0.64023431    -0.43900
N3612       N  0.60967839  0.40138899  0.01199306    -0.43900
C3613       C  0.78252706  0.32576629  0.58413400    -0.00300
C3614       C  0.76647270  0.30071249  0.56670987    -0.12200
C3615       C  0.74324089  0.29824179  0.54948759     0.02000
C3616       C  0.73636314  0.32164953  0.54898307    -0.00400
C3617       C  0.75189954  0.34622627  0.56698754    -0.12100
C3618       C  0.77442109  0.34828270  0.58464483     0.01800
H3619       H  0.77277959  0.28354874  0.56583352     0.14800
H3620       H  0.74658235  0.36412990  0.56708793     0.14800
C3621       C  0.78878864  0.37381741  0.60318307     0.36500
C3622       C  0.72794246  0.27224128  0.53159696     0.36400
N3623       N  0.80054824  0.39425741  0.61802319    -0.43900
N3624       N  0.71558049  0.25126753  0.51742852    -0.43900
Fe3625     Fe  0.70355474  0.86895806  0.99652397     1.65800
Fe3626     Fe  0.63212475  0.83632315  0.49105073     1.73200
Fe3627     Fe  0.66622875  0.79412871  0.49220416     1.54400
O3628       O  0.70208733  0.80773191  0.46527109    -0.81800
O3629       O  0.60594516  0.79941626  0.02503090    -0.80100
O3630       O  0.72420189  0.85747492  0.45946314    -0.84300
O3631       O  0.72234302  0.85305206  0.02480838    -0.79200
O3632       O  0.63833282  0.78004487  0.45798564    -0.80900
O3633       O  0.64041493  0.86412324  0.02363602    -0.83700
C3634       C  0.71641377  0.82800500  0.03537416     0.97100
C3635       C  0.72111463  0.83205860  0.45328922     1.04500
O3636       O  0.66907686  0.83384451  0.49250942    -1.12700
O3637       O  0.64811762  0.86727931  0.45876129    -0.75100
O3638       O  0.69748143  0.89485180  0.46572375    -0.78600
O3639       O  0.69357422  0.80329898  0.02807805    -0.79300
C3640       C  0.67368155  0.89009185  0.45342516     0.96000
O3641       O  0.68968681  0.88486487  0.03004722    -0.77200
O3642       O  0.61164225  0.80293913  0.46108662    -0.82400
C3643       C  0.60900846  0.77780638  0.03390129     0.98600
C3644       C  0.61717584  0.78393535  0.44965573     1.04500
O3645       O  0.62893830  0.77256794  0.02423510    -0.78100
C3646       C  0.66429042  0.88185695  0.03665782     1.02800
Fe3647     Fe  0.87042399  0.66441164  0.50668080     1.65800
Fe3648     Fe  0.79356678  0.62878878  0.01329777     1.73200
Fe3649     Fe  0.83508248  0.70615633  0.01190155     1.61200
O3650       O  0.86941149  0.72429886  0.04102664    -0.81800
O3651       O  0.77921455  0.64513955  0.47321038    -0.80100
O3652       O  0.88913245  0.69459881  0.04468444    -0.84300
O3653       O  0.89382572  0.70106753  0.48011596    -0.79200
O3654       O  0.80436068  0.69458611  0.04448981    -0.80900
O3655       O  0.80721967  0.60846990  0.47745464    -0.83700
C3656       C  0.88893040  0.72067780  0.46912869     0.97100
C3657       C  0.88759932  0.71749836  0.05216841     1.04500
O3658       O  0.83309619  0.66668463  0.01224720    -1.12700
O3659       O  0.80516699  0.60872741  0.04461153    -0.75100
O3660       O  0.85464138  0.62962217  0.03979932    -0.78600
O3661       O  0.86615434  0.72295091  0.47543081    -0.79300
C3662       C  0.82977850  0.61028519  0.05101916     0.96000
O3663       O  0.85701180  0.63653786  0.47247817    -0.77200
O3664       O  0.77637781  0.64442382  0.04415227    -0.82400
C3665       C  0.78251601  0.67079436  0.46750606     0.98600
C3666       C  0.78276826  0.66995229  0.05398284     1.04500
O3667       O  0.80137167  0.69460598  0.48022550    -0.78100
C3668       C  0.83183007  0.61406183  0.46579131     1.02800
C3669       C  0.97741877  0.00468793  0.13644595     0.02200
C3670       C  0.97369714  0.97555105  0.13581184     0.02200
C3671       C  0.99921430  0.97217771  0.13643325     0.02200
C3672       C  0.52430537  0.99440826  0.14386344     0.02200
C3673       C  0.53175860  0.52439080  0.14325836     0.02200
C3674       C  0.50619985  0.52777785  0.14357582     0.02200
C3675       C  0.81988684  0.98920619  0.15475487     0.80100
N3676       N  0.81483686  0.50512785  0.14293915    -0.78200
C3677       C  0.83848492  0.52590606  0.12711936     0.82500
N3678       N  0.86476261  0.52564914  0.12728084    -0.78200
C3679       C  0.87083528  0.01432344  0.14042067     0.82600
N3680       N  0.84750988  0.99202471  0.15476715    -0.79900
C3681       C  0.68998580  0.51891443  0.13842268     0.80100
N3682       N  0.66177347  0.51394467  0.14282910    -0.78200
C3683       C  0.62885790  0.98037957  0.13920812     0.82500
N3684       N  0.63150665  0.95960543  0.12400527    -0.78200
C3685       C  0.65881614  0.96193734  0.11980416     0.82600
N3686       N  0.68380382  0.98601142  0.13078847    -0.79900
C3687       C  0.69635762  0.66651536  0.13419217     0.80100
N3688       N  0.67156848  0.63860975  0.13599335    -0.78200
C3689       C  0.64708336  0.63399139  0.15080140     0.82500
N3690       N  0.64732629  0.65758854  0.16357619    -0.78200
C3691       C  0.67163423  0.68585094  0.16196027     0.82600
N3692       N  0.69627326  0.69022026  0.14702632    -0.79900
C3693       C  0.98569090  0.66557557  0.14234916     0.80100
N3694       N  0.00442331  0.68812767  0.12445105    -0.78200
C3695       C  0.53226313  0.69135134  0.11841364     0.82500
N3696       N  0.53622282  0.66746040  0.12297093    -0.78200
C3697       C  0.01332326  0.64096351  0.13406941     0.82600
N3698       N  0.99074464  0.64249262  0.14704965    -0.79900
C3699       C  0.80899769  0.83653088  0.11087095     0.80100
N3700       N  0.83401121  0.86407035  0.11476078    -0.78200
C3701       C  0.85712509  0.86706105  0.13060712     0.82500
N3702       N  0.85557238  0.84224352  0.14184409    -0.78200
C3703       C  0.83163793  0.81438574  0.13742807     0.82600
N3704       N  0.80805690  0.81155979  0.12207113    -0.79900
C3705       C  0.52192098  0.83350610  0.14874374     0.80100
N3706       N  0.51832030  0.85783295  0.15157024    -0.78200
C3707       C  0.00045601  0.86075041  0.13506362     0.82500
N3708       N  0.97889797  0.83588608  0.12199972    -0.78200
C3709       C  0.97932540  0.80973436  0.12225213     0.82600
N3710       N  0.00175431  0.80855677  0.13615840    -0.79900
Fe3711     Fe  0.83716839  0.63177622  0.24431236     1.65800
Fe3712     Fe  0.79681162  0.66767488  0.24398356     1.73200
Fe3713     Fe  0.87375382  0.70861697  0.24033020     1.54400
O3714       O  0.89284264  0.69928778  0.27433642    -0.81800
O3715       O  0.80965474  0.70162420  0.21458977    -0.80100
O3716       O  0.87242448  0.64941849  0.27250688    -0.84300
O3717       O  0.86675026  0.64406203  0.21125774    -0.79200
O3718       O  0.85844144  0.72978782  0.26668208    -0.80900
O3719       O  0.77991520  0.63686186  0.21181740    -0.83700
C3720       C  0.88948840  0.66871660  0.20354795     0.97100
C3721       C  0.89142400  0.67502373  0.28252456     1.04500
O3722       O  0.83594457  0.66935925  0.24299708    -1.12700
O3723       O  0.77798034  0.63366679  0.27379510    -0.75100
O3724       O  0.80767857  0.61428811  0.27780299    -0.78600
O3725       O  0.89505223  0.69393405  0.21324163    -0.79300
C3726       C  0.78473882  0.61563088  0.28534950     0.96000
O3727       O  0.80241848  0.60974941  0.21577934    -0.77200
O3728       O  0.80973634  0.69855413  0.27590717    -0.82400
C3729       C  0.83336193  0.71952982  0.20103253     0.98600
C3730       C  0.83410449  0.72335139  0.27921601     1.04500
O3731       O  0.85867197  0.72179383  0.20614586    -0.78100
C3732       C  0.78318365  0.61493643  0.20443336     1.02800
Fe3733     Fe  0.63067957  0.79906823  0.25759171     1.65800
Fe3734     Fe  0.70731720  0.83977311  0.25943711     1.73200
Fe3735     Fe  0.66713017  0.87587767  0.25943867     1.54400
O3736       O  0.64004610  0.86360874  0.22464096    -0.81800
O3737       O  0.72545863  0.87468069  0.28780976    -0.80100
O3738       O  0.61078261  0.81377252  0.22873694    -0.84300
O3739       O  0.61143767  0.80961120  0.29042373    -0.79200
O3740       O  0.70450902  0.89902760  0.23333468    -0.80900
O3741       O  0.69459943  0.81013104  0.29279904    -0.83700
C3742       C  0.61134724  0.83350541  0.29676767     0.97100
C3743       C  0.61720105  0.83879445  0.21750270     1.04500
O3744       O  0.66833509  0.83818255  0.25874147    -1.12700
O3745       O  0.69472428  0.80446175  0.23165126    -0.75100
O3746       O  0.64538681  0.78342690  0.22495013    -0.78600
O3747       O  0.62970531  0.85880471  0.28567110    -0.79300
C3748       C  0.67047967  0.78509272  0.21997835     0.96000
O3749       O  0.64554118  0.77930668  0.28628046    -0.77200
O3750       O  0.72415724  0.86974232  0.22623110    -0.82400
C3751       C  0.71748055  0.89104668  0.30088182     0.98600
C3752       C  0.72318309  0.89351132  0.22110412     1.04500
O3753       O  0.69387574  0.89161525  0.29451763    -0.78100
C3754       C  0.66994081  0.78630518  0.29878980     1.02800
C3755       C  0.97218653  0.50219908  0.35347392     0.02200
C3756       C  0.97045270  0.97667252  0.35713227     0.02200
C3757       C  0.49569049  0.97255026  0.35996870     0.02200
C3758       C  0.52839343  0.50030024  0.36606750     0.02200
C3759       C  0.53028944  0.52882629  0.36600061     0.02200
C3760       C  0.50343107  0.53033589  0.36741963     0.02200
C3761       C  0.69123846  0.52333341  0.35569339     0.80100
N3762       N  0.66338304  0.52004888  0.35419750    -0.78200
C3763       C  0.63908450  0.49613436  0.36615265     0.82500
N3764       N  0.64090005  0.97795002  0.38446690    -0.78200
C3765       C  0.66872759  0.98110052  0.38684367     0.82600
N3766       N  0.69451763  0.50174380  0.36905435    -0.79900
C3767       C  0.81125283  0.98046067  0.37001556     0.80100
N3768       N  0.83892774  0.98466788  0.36449032    -0.78200
C3769       C  0.86314293  0.50661229  0.37141529     0.82500
N3770       N  0.86155104  0.52754014  0.38754847    -0.78200
C3771       C  0.83429597  0.52441165  0.39411774     0.82600
N3772       N  0.80870079  0.50009881  0.38455676    -0.79900
C3773       C  0.98206707  0.67037396  0.35091070     0.80100
N3774       N  0.00322900  0.69377580  0.36624778    -0.78200
C3775       C  0.52789329  0.69511709  0.37545280     0.82500
N3776       N  0.52812563  0.66881066  0.37507369    -0.78200
C3777       C  0.00537169  0.64211200  0.36178960     0.82600
N3778       N  0.98365525  0.64487159  0.34855553    -0.79900
C3779       C  0.69372218  0.67144936  0.39381133     0.80100
N3780       N  0.66878011  0.64387578  0.39030571    -0.78200
C3781       C  0.64502189  0.64072210  0.37534347     0.82500
N3782       N  0.64669579  0.66548791  0.36342392    -0.78200
C3783       C  0.67146045  0.69326897  0.36645345     0.82600
N3784       N  0.69496019  0.69616044  0.38191247    -0.79900
C3785       C  0.51862640  0.83348422  0.36687662     0.80100
N3786       N  0.51521382  0.85778685  0.36368409    -0.78200
C3787       C  0.49225130  0.85913845  0.37618670     0.82500
N3788       N  0.97352096  0.83749134  0.39164946    -0.78200
C3789       C  0.97755934  0.81376486  0.39682653     0.82600
N3790       N  0.49807254  0.80966383  0.38254961    -0.79900
C3791       C  0.80962531  0.83250770  0.37963732     0.80100
N3792       N  0.83444818  0.86030572  0.37811401    -0.78200
C3793       C  0.85857016  0.86496091  0.36279662     0.82500
N3794       N  0.85764240  0.84184931  0.34848678    -0.78200
C3795       C  0.83306005  0.81380088  0.34994847     0.82600
N3796       N  0.80892747  0.80906756  0.36573458    -0.79900
C3797       C  0.50472007  0.55991562  0.36656852    -0.00300
C3798       C  0.01547531  0.57522807  0.37845895    -0.12200
C3799       C  0.01579491  0.60243934  0.38164829     0.02000
C3800       C  0.00625152  0.61380224  0.35945059    -0.00400
C3801       C  0.51637835  0.60783547  0.38697544    -0.12100
C3802       C  0.51571961  0.58036050  0.38903254     0.01800
H3803       H  0.02218477  0.56635252  0.39568103     0.14800
H3804       H  0.52453194  0.62331027  0.40458500     0.14800
C3805       C  0.52564095  0.57335387  0.41462908     0.36500
C3806       C  0.02387289  0.61681753  0.40864816     0.36400
N3807       N  0.53360752  0.56785562  0.43521753    -0.43900
N3808       N  0.03010898  0.62801110  0.43043792    -0.43900
C3809       C  0.56055280  0.55698151  0.36700344    -0.00300
C3810       C  0.57882470  0.56172674  0.39035473    -0.12200
C3811       C  0.60696511  0.58797973  0.39301475     0.02000
C3812       C  0.61699432  0.61088526  0.37238892    -0.00400
C3813       C  0.59900445  0.60573335  0.34866129    -0.12100
C3814       C  0.57137307  0.57894654  0.34556457     0.01800
H3815       H  0.57080695  0.54492051  0.40684633     0.14800
H3816       H  0.60667749  0.62262061  0.33224932     0.14800
C3817       C  0.55518525  0.57434175  0.31980204     0.36500
C3818       C  0.62442560  0.59081058  0.41753243     0.36400
N3819       N  0.54259954  0.57086936  0.29892415    -0.43900
N3820       N  0.63839151  0.59273791  0.43711375    -0.43900
C3821       C  0.88569387  0.89486333  0.36153653    -0.00300
C3822       C  0.89965078  0.90580665  0.33549985    -0.12200
C3823       C  0.92675173  0.93309552  0.33350740     0.02000
C3824       C  0.94010907  0.94968061  0.35789481    -0.00400
C3825       C  0.92564441  0.93943640  0.38378400    -0.12100
C3826       C  0.89868746  0.91197024  0.38586406     0.01800
H3827       H  0.88952082  0.89282886  0.31675840     0.14800
H3828       H  0.93620820  0.95227665  0.40248773     0.14800
C3829       C  0.88630858  0.90073479  0.41334427     0.36500
C3830       C  0.94042856  0.94363612  0.30631740     0.36400
N3831       N  0.87659507  0.89161898  0.43539832    -0.43900
N3832       N  0.95113361  0.95209101  0.28443654    -0.43900
C3833       C  0.89235168  0.50857930  0.36540053    -0.00300
C3834       C  0.91315773  0.51640157  0.38713499    -0.12200
C3835       C  0.93909723  0.51433762  0.38368950     0.02000
C3836       C  0.94529493  0.50561341  0.35767509    -0.00400
C3837       C  0.92591193  0.00000020  0.34017176    -0.12100
C3838       C  0.89956432  0.00118637  0.34327969     0.01800
H3839       H  0.90829149  0.52247469  0.40737489     0.14800
H3840       H  0.93016063  0.99194007  0.32070793     0.14800
C3841       C  0.87920730  0.99208283  0.31989113     0.36500
C3842       C  0.95782473  0.51922074  0.40772921     0.36400
N3843       N  0.86289305  0.98470044  0.30115276    -0.43900
N3844       N  0.97260707  0.52300019  0.42715804    -0.43900
C3845       C  0.60957417  0.49475813  0.36590704    -0.00300
C3846       C  0.60018135  0.00409865  0.34135536    -0.12200
C3847       C  0.57303925  0.00378853  0.33762034     0.02000
C3848       C  0.55635919  0.49820217  0.36532829    -0.00400
C3849       C  0.56422483  0.48780214  0.38915345    -0.12100
C3850       C  0.59020819  0.48548281  0.38948176     0.01800
H3851       H  0.61600759  0.01075580  0.32401657     0.14800
H3852       H  0.55007823  0.48170043  0.40766783     0.14800
C3853       C  0.59690084  0.47455219  0.41465362     0.36500
C3854       C  0.56692354  0.01153539  0.31043498     0.36400
N3855       N  0.60216607  0.46559293  0.43476198    -0.43900
N3856       N  0.56233575  0.01747292  0.28836702    -0.43900
C3857       C  0.49238468  0.94216007  0.36337263    -0.00300
C3858       C  0.48441933  0.92798282  0.38967909    -0.12200
C3859       C  0.48291076  0.90027087  0.39421106     0.02000
C3860       C  0.49002040  0.88656964  0.37219915    -0.00400
C3861       C  0.99675285  0.90049591  0.34252358    -0.12100
C3862       C  0.99778097  0.92786133  0.33765732     0.01800
H3863       H  0.48004801  0.93899836  0.40689085     0.14800
H3864       H  0.00211935  0.88998199  0.32555290     0.14800
C3865       C  0.00518361  0.94066597  0.30991287     0.36500
C3866       C  0.47555278  0.88729286  0.42191954     0.36400
N3867       N  0.01095701  0.95041117  0.28745376    -0.43900
N3868       N  0.46958409  0.87692445  0.44414918    -0.43900
C3869       C  0.67209845  0.71965753  0.35258787    -0.00300
C3870       C  0.64450231  0.71775741  0.34639227    -0.12200
C3871       C  0.64323196  0.74010130  0.33070424     0.02000
C3872       C  0.67005128  0.76494479  0.31996106    -0.00400
C3873       C  0.69774945  0.76791716  0.32782117    -0.12100
C3874       C  0.69895854  0.74578668  0.34400922     0.01800
H3875       H  0.62362541  0.69853045  0.35367055     0.14800
H3876       H  0.71866111  0.78698571  0.32037489     0.14800
C3877       C  0.72813867  0.74994037  0.35006797     0.36500
C3878       C  0.61395645  0.73678693  0.32638593     0.36400
N3879       N  0.75159604  0.75331240  0.35493447    -0.43900
N3880       N  0.59040392  0.73401355  0.32322649    -0.43900
C3881       C  0.54395374  0.83294271  0.35211434    -0.00300
C3882       C  0.53930736  0.80581276  0.34064779    -0.12200
C3883       C  0.56102999  0.80514887  0.32320606     0.02000
C3884       C  0.58862752  0.83207038  0.31734975    -0.00400
C3885       C  0.59378896  0.85892491  0.33006783    -0.12100
C3886       C  0.57187173  0.85964492  0.34704533     0.01800
H3887       H  0.51789558  0.78529485  0.34396473     0.14800
H3888       H  0.61482674  0.87972369  0.32625980     0.14800
C3889       C  0.57855298  0.88832107  0.35862137     0.36500
C3890       C  0.55312177  0.77685175  0.31004958     0.36400
N3891       N  0.58354125  0.91122698  0.36774737    -0.43900
N3892       N  0.54650929  0.75416934  0.29935881    -0.43900
C3893       C  0.73768294  0.91083872  0.32347117    -0.00300
C3894       C  0.76249938  0.90782164  0.33065939    -0.12200
C3895       C  0.78551095  0.92887023  0.34754294     0.02000
C3896       C  0.78440312  0.95421716  0.35752824    -0.00400
C3897       C  0.75805829  0.95546818  0.35312582    -0.12100
C3898       C  0.73463401  0.93394073  0.33650647     0.01800
H3899       H  0.76460699  0.88934270  0.32232981     0.14800
H3900       H  0.75625949  0.97408916  0.36157533     0.14800
C3901       C  0.70833740  0.93678985  0.33287539     0.36500
C3902       C  0.81006362  0.92377750  0.35383011     0.36400
N3903       N  0.68724895  0.93911986  0.33027490    -0.43900
N3904       N  0.82973455  0.91971625  0.35879002    -0.43900
C3905       C  0.91327637  0.67586645  0.30367674    -0.00300
C3906       C  0.90756428  0.64833474  0.31543915    -0.12200
C3907       C  0.92899225  0.64633988  0.33172811     0.02000
C3908       C  0.95735933  0.67231440  0.33667125    -0.00400
C3909       C  0.96237235  0.70029493  0.32685151    -0.12100
C3910       C  0.94071710  0.70234415  0.31060177     0.01800
H3911       H  0.88639544  0.62789255  0.31140974     0.14800
H3912       H  0.98369299  0.72052742  0.33100492     0.14800
C3913       C  0.94793228  0.73184930  0.30083499     0.36500
C3914       C  0.92094117  0.61714970  0.34316978     0.36400
N3915       N  0.95387645  0.75564398  0.29328776    -0.43900
N3916       N  0.91459855  0.59378147  0.35226100    -0.43900
C3917       C  0.76401422  0.59449919  0.30745313    -0.00300
C3918       C  0.73966602  0.59759485  0.31659770    -0.12200
C3919       C  0.71689707  0.57593778  0.33386878     0.02000
C3920       C  0.71742508  0.54960422  0.34172242    -0.00400
C3921       C  0.74304217  0.54780483  0.33474115    -0.12100
C3922       C  0.76639027  0.57004687  0.31824739     0.01800
H3923       H  0.73800961  0.61686356  0.30987077     0.14800
H3924       H  0.74455222  0.52845238  0.34147916     0.14800
C3925       C  0.79217211  0.56670454  0.31272454     0.36500
C3926       C  0.69367674  0.58184581  0.34347646     0.36400
N3927       N  0.81291844  0.56406336  0.30865810    -0.43900
N3928       N  0.67521947  0.58670372  0.35130685    -0.43900
C3929       C  0.83403407  0.74637407  0.29748556    -0.00300
C3930       C  0.81947900  0.73790213  0.32354609    -0.12200
C3931       C  0.81902316  0.75932990  0.34129855     0.02000
C3932       C  0.83246346  0.78972343  0.33254067    -0.00400
C3933       C  0.84678959  0.79799639  0.30628540    -0.12100
C3934       C  0.84779323  0.77679510  0.28884437     0.01800
H3935       H  0.80906618  0.71456912  0.33033464     0.14800
H3936       H  0.85707737  0.82121639  0.29914239     0.14800
C3937       C  0.86208233  0.78673018  0.26173833     0.36500
C3938       C  0.80593198  0.74952043  0.36871468     0.36400
N3939       N  0.87354197  0.79474873  0.24006249    -0.43900
N3940       N  0.79504755  0.74081750  0.39047355    -0.43900
C3941       C  0.59614829  0.83902345  0.19633900    -0.00300
C3942       C  0.57737230  0.81267178  0.18112867    -0.12200
C3943       C  0.55433410  0.81064710  0.16388658     0.02000
C3944       C  0.54875734  0.83490010  0.16254250    -0.00400
C3945       C  0.56916174  0.86193872  0.17615324    -0.12100
C3946       C  0.59253165  0.86429695  0.19266504     0.01800
H3947       H  0.58058155  0.79342748  0.18282899     0.14800
H3948       H  0.56656851  0.88156350  0.17468302     0.14800
C3949       C  0.61108261  0.89260707  0.20679518     0.36500
C3950       C  0.53783745  0.78395250  0.14719930     0.36400
N3951       N  0.62577894  0.91538397  0.21798097    -0.43900
N3952       N  0.52539651  0.76284415  0.13324810    -0.43900
C3953       C  0.83200408  0.74028659  0.17995954    -0.00300
C3954       C  0.85916883  0.76563860  0.17141594    -0.12200
C3955       C  0.85951346  0.78915720  0.15646300     0.02000
C3956       C  0.83205447  0.78778025  0.14941877    -0.00400
C3957       C  0.80484741  0.76115741  0.15550850    -0.12100
C3958       C  0.80456535  0.73749634  0.17054978     0.01800
H3959       H  0.88049114  0.76797559  0.17761739     0.14800
H3960       H  0.78364509  0.75925746  0.14955665     0.14800
C3961       C  0.77575123  0.71090043  0.17624955     0.36500
C3962       C  0.88868083  0.81467818  0.14931434     0.36400
N3963       N  0.75274666  0.68951271  0.18089620    -0.43900
N3964       N  0.91196663  0.83529705  0.14377838    -0.43900
C3965       C  0.95927657  0.66529981  0.15606759    -0.00300
C3966       C  0.95547461  0.69051864  0.15335770    -0.12200
C3967       C  0.93186182  0.69164636  0.16719727     0.02000
C3968       C  0.91164752  0.66738763  0.18445894    -0.00400
C3969       C  0.91428100  0.64162001  0.18576842    -0.12100
C3970       C  0.93743021  0.64017291  0.17194516     0.01800
H3971       H  0.97113838  0.70963944  0.14064278     0.14800
H3972       H  0.89866133  0.62259007  0.19863804     0.14800
C3973       C  0.93749608  0.61221143  0.17492290     0.36500
C3974       C  0.92827131  0.71743818  0.16278819     0.36400
N3975       N  0.93696567  0.58953650  0.17733807    -0.43900
N3976       N  0.92492877  0.73784330  0.15937264    -0.43900
C3977       C  0.67058283  0.71169817  0.17551913    -0.00300
C3978       C  0.69610230  0.74094873  0.17416279    -0.12200
C3979       C  0.69638384  0.76563479  0.18721034     0.02000
C3980       C  0.67068318  0.76150475  0.20201701    -0.00400
C3981       C  0.64491600  0.73271936  0.20244187    -0.12100
C3982       C  0.64453022  0.70805035  0.18974811     0.01800
H3983       H  0.71615471  0.74466261  0.16306601     0.14800
H3984       H  0.62501631  0.72905823  0.21384439     0.14800
C3985       C  0.61670618  0.67952666  0.19228487     0.36500
C3986       C  0.72312534  0.79500375  0.18458056     0.36400
N3987       N  0.59410337  0.65702901  0.19454875    -0.43900
N3988       N  0.74452340  0.81855654  0.18234104    -0.43900
C3989       C  0.71597428  0.54650836  0.15097559    -0.00300
C3990       C  0.74457717  0.54931460  0.15299917    -0.12200
C3991       C  0.76791737  0.57315080  0.16810720     0.02000
C3992       C  0.76227366  0.59360007  0.18300173    -0.00400
C3993       C  0.73493611  0.59266313  0.17840811    -0.12100
C3994       C  0.71236338  0.57019155  0.16206725     0.01800
H3995       H  0.74871815  0.53277556  0.14303524     0.14800
H3996       H  0.73074754  0.60929784  0.18811726     0.14800
C3997       C  0.68612608  0.57280431  0.15675357     0.36500
C3998       C  0.79774498  0.57707117  0.16688107     0.36400
N3999       N  0.66526110  0.57505733  0.15227890    -0.43900
N4000       N  0.82174736  0.58046041  0.16571259    -0.43900
C4001       C  0.79442982  0.96336893  0.17009486    -0.00300
C4002       C  0.76753913  0.96356725  0.17475019    -0.12200
C4003       C  0.74332710  0.94030840  0.18966150     0.02000
C4004       C  0.74600187  0.91645568  0.20143692    -0.00400
C4005       C  0.77247110  0.91571038  0.19600738    -0.12100
C4006       C  0.79635572  0.93844823  0.18053343     0.01800
H4007       H  0.76544550  0.98225498  0.16703464     0.14800
H4008       H  0.77498270  0.89752501  0.20452635     0.14800
C4009       C  0.82238651  0.93513701  0.17616095     0.36500
C4010       C  0.71583378  0.94128986  0.19170201     0.36400
N4011       N  0.77396627  0.51656710  0.19296216    -0.43900
N4012       N  0.69381501  0.94216188  0.19289050    -0.43900
C4013       C  0.56234127  0.55152000  0.14504630    -0.00300
C4014       C  0.57219830  0.56566642  0.17100092    -0.12200
C4015       C  0.60035199  0.59179624  0.17369656     0.02000
C4016       C  0.61894605  0.60450543  0.14991641    -0.00400
C4017       C  0.60933743  0.58995498  0.12405776    -0.12100
C4018       C  0.58122003  0.56374545  0.12140866     0.01800
H4019       H  0.55769474  0.55621664  0.18925400     0.14800
H4020       H  0.62339801  0.59974311  0.10559249     0.14800
C4021       C  0.57186485  0.55059054  0.09406557     0.36500
C4022       C  0.60996154  0.60453904  0.20117185     0.36400
N4023       N  0.56464711  0.54030307  0.07200317    -0.43900
N4024       N  0.61758326  0.61456216  0.22327505    -0.43900
C4025       C  0.00977186  0.55583707  0.14133277    -0.00300
C4026       C  0.00938397  0.57100024  0.16553586    -0.12200
C4027       C  0.01230284  0.59961694  0.16379167     0.02000
C4028       C  0.01529173  0.61333085  0.13739720    -0.00400
C4029       C  0.51918441  0.60311642  0.11753449    -0.12100
C4030       C  0.51442741  0.57388209  0.11748940     0.01800
H4031       H  0.00674996  0.56041921  0.18576841     0.14800
H4032       H  0.52142676  0.61446992  0.09778534     0.14800
C4033       C  0.51195449  0.55954401  0.09095221     0.36500
C4034       C  0.01288107  0.61473470  0.18939161     0.36400
N4035       N  0.50928003  0.54799892  0.06956595    -0.43900
N4036       N  0.01355018  0.62687677  0.20995856    -0.43900
C4037       C  0.55030904  0.98920914  0.14368064    -0.00300
C4038       C  0.56291463  0.48504303  0.11409962    -0.12200
C4039       C  0.58901762  0.48330278  0.11089411     0.02000
C4040       C  0.59999052  0.98008789  0.14109264    -0.00400
C4041       C  0.59289790  0.98974813  0.16598505    -0.12100
C4042       C  0.56798740  0.99383148  0.16756158     0.01800
H4043       H  0.54906492  0.48214304  0.09605350     0.14800
H4044       H  0.60700936  0.99434989  0.18417258     0.14800
C4045       C  0.56084983  0.00251433  0.19388154     0.36500
C4046       C  0.59707957  0.47894081  0.08307895     0.36400
N4047       N  0.55503929  0.00933066  0.21502421    -0.43900
N4048       N  0.60323063  0.47571667  0.06055659    -0.43900
C4049       C  0.99584834  0.94176425  0.13686595    -0.00300
C4050       C  0.99098630  0.92613466  0.11169825    -0.12200
C4051       C  0.99203537  0.89947994  0.11069002     0.02000
C4052       C  0.99865675  0.88851215  0.13515026    -0.00400
C4053       C  0.49163618  0.89781683  0.16691835    -0.12100
C4054       C  0.49013882  0.92421903  0.16814607     0.01800
H4055       H  0.98733998  0.93531159  0.09271363     0.14800
H4056       H  0.49243920  0.88696313  0.18608141     0.14800
C4057       C  0.48907673  0.93628986  0.19505789     0.36500
C4058       C  0.98751104  0.88459618  0.08408873     0.36400
N4059       N  0.48786904  0.94584942  0.21659669    -0.43900
N4060       N  0.98376411  0.87261102  0.06278594    -0.43900
C4061       C  0.88541777  0.89632890  0.13306928    -0.00300
C4062       C  0.89811963  0.91368469  0.10881055    -0.12200
C4063       C  0.92697173  0.93928416  0.10923106     0.02000
C4064       C  0.94304956  0.94852977  0.13449005    -0.00400
C4065       C  0.93023794  0.93157143  0.15883109    -0.12100
C4066       C  0.90179758  0.90548933  0.15831044     0.01800
H4067       H  0.88618590  0.90632209  0.08917643     0.14800
H4068       H  0.94274009  0.93850555  0.17818806     0.14800
C4069       C  0.89010812  0.88859527  0.18397706     0.36500
C4070       C  0.94043828  0.95454375  0.08321965     0.36400
N4071       N  0.88102879  0.87514918  0.20462919    -0.43900
N4072       N  0.95136482  0.96648918  0.06229410    -0.43900
C4073       C  0.95080242  0.00849214  0.13791730    -0.00300
C4074       C  0.93935965  0.50770791  0.11873702    -0.12200
C4075       C  0.91276832  0.50876537  0.11804376     0.02000
C4076       C  0.89977814  0.01500650  0.13937413    -0.00400
C4077       C  0.90956549  0.00731773  0.16368526    -0.12100
C4078       C  0.93508302  0.00438720  0.16321871     0.01800
H4079       H  0.95137424  0.50978711  0.09944118     0.14800
H4080       H  0.89707021  0.00337656  0.18310909     0.14800
C4081       C  0.94463334  0.99702831  0.18886927     0.36500
C4082       C  0.90138056  0.51083205  0.09113240     0.36400
N4083       N  0.95218855  0.99107868  0.20946042    -0.43900
N4084       N  0.89220464  0.51218485  0.06948525    -0.43900
C4085       C  0.83133984  0.59229282  0.44499717    -0.00300
C4086       C  0.80816927  0.56198411  0.44695320    -0.12200
C4087       C  0.80863280  0.53960923  0.43068111     0.02000
C4088       C  0.83249334  0.54735653  0.41150901    -0.00400
C4089       C  0.85520314  0.57771398  0.40892935    -0.12100
C4090       C  0.85480506  0.60013803  0.42523637     0.01800
H4091       H  0.79021525  0.55539311  0.46223959     0.14800
H4092       H  0.87336355  0.58403132  0.39397108     0.14800
C4093       C  0.87855092  0.63096323  0.42078059     0.36500
C4094       C  0.78545837  0.50866050  0.43561220     0.36400
N4095       N  0.89761149  0.65560595  0.41702830    -0.43900
N4096       N  0.77384727  0.98315576  0.44676011    -0.43900
C4097       C  0.83583196  0.54831599  0.10912692    -0.00300
C4098       C  0.80739565  0.54197076  0.09951243    -0.12200
C4099       C  0.80438222  0.56159871  0.08094182     0.02000
C4100       C  0.83024912  0.58887061  0.07208860    -0.00400
C4101       C  0.85837106  0.59547110  0.08255513    -0.12100
C4102       C  0.86148980  0.57569625  0.10036844     0.01800
H4103       H  0.78746192  0.52105238  0.10571895     0.14800
H4104       H  0.87852254  0.61620169  0.07636126     0.14800
C4105       C  0.89177472  0.58442987  0.10862048     0.36500
C4106       C  0.77463319  0.55219402  0.07051668     0.36400
N4107       N  0.91627159  0.59154910  0.11447489    -0.43900
N4108       N  0.75065387  0.54423374  0.06227015    -0.43900
C4109       C  0.71899461  0.67400928  0.41076566    -0.00300
C4110       C  0.72812995  0.65275193  0.40674000    -0.12200
C4111       C  0.74975495  0.65210926  0.42398467     0.02000
C4112       C  0.76256661  0.67291137  0.44619322    -0.00400
C4113       C  0.75433221  0.69505274  0.44939231    -0.12100
C4114       C  0.73264599  0.69562442  0.43210309     0.01800
H4115       H  0.71805363  0.63630397  0.39015766     0.14800
H4116       H  0.76374005  0.71110301  0.46635536     0.14800
C4117       C  0.72297505  0.71693524  0.43823770     0.36500
C4118       C  0.75850152  0.63002958  0.41807652     0.36400
N4119       N  0.71494898  0.73376994  0.44329734    -0.43900
N4120       N  0.76544745  0.61232939  0.41314527    -0.43900
C4121       C  0.91140883  0.74270944  0.44909743    -0.00300
C4122       C  0.94227632  0.75406799  0.45398336    -0.12200
C4123       C  0.96440381  0.77726702  0.43729301     0.02000
C4124       C  0.95566043  0.78891922  0.41485509    -0.00400
C4125       C  0.92493534  0.77726213  0.40972007    -0.12100
C4126       C  0.90288667  0.75442705  0.42651771     0.01800
H4127       H  0.94914614  0.74576347  0.47162941     0.14800
H4128       H  0.91810705  0.78607269  0.39243313     0.14800
C4129       C  0.87168313  0.74312809  0.41976869     0.36500
C4130       C  0.99567839  0.79019025  0.44489481     0.36400
N4131       N  0.84664831  0.73401620  0.41440585    -0.43900
N4132       N  0.51701710  0.79408341  0.44673774    -0.43900
C4133       C  0.72190627  0.67066213  0.11630060    -0.00300
C4134       C  0.73099470  0.64912990  0.11775266    -0.12200
C4135       C  0.75146632  0.64904058  0.09833605     0.02000
C4136       C  0.76356582  0.67104824  0.07686955    -0.00400
C4137       C  0.75556640  0.69351789  0.07625544    -0.12100
C4138       C  0.73467838  0.69323547  0.09551468     0.01800
H4139       H  0.72149560  0.63184674  0.13380375     0.14800
H4140       H  0.76436345  0.71036960  0.05976100     0.14800
C4141       C  0.72438608  0.71443028  0.09208195     0.36500
C4142       C  0.75961818  0.62607495  0.10097221     0.36400
N4143       N  0.71517331  0.73071478  0.08999877    -0.43900
N4144       N  0.76610969  0.60764902  0.10309425    -0.43900
C4145       C  0.95501411  0.78318677  0.10738196    -0.00300
C4146       C  0.92684616  0.78110502  0.10480554    -0.12200
C4147       C  0.90396256  0.75898115  0.08843223     0.02000
C4148       C  0.90902675  0.73810269  0.07364270    -0.00400
C4149       C  0.93655585  0.73891599  0.07761648    -0.12100
C4150       C  0.95945031  0.76115980  0.09418475     0.01800
H4151       H  0.92275106  0.79745430  0.11539682     0.14800
H4152       H  0.94091700  0.72301693  0.06656641     0.14800
C4153       C  0.98788276  0.76207589  0.09560475     0.36500
C4154       C  0.87568488  0.75856762  0.08719687     0.36400
N4155       N  0.01079331  0.76302364  0.09675084    -0.43900
N4156       N  0.85310968  0.75837735  0.08625332    -0.43900
C4157       C  0.55242799  0.72137619  0.39055920    -0.00300
C4158       C  0.57952432  0.72164000  0.39525244    -0.12200
C4159       C  0.60183334  0.74290663  0.41272416     0.02000
C4160       C  0.59712068  0.76450069  0.42671738    -0.00400
C4161       C  0.57114025  0.76585249  0.42010297    -0.12100
C4162       C  0.54901972  0.74476189  0.40217064     0.01800
H4163       H  0.58317679  0.70465414  0.38561740     0.14800
H4164       H  0.56737504  0.78271207  0.42981307     0.14800
C4165       C  0.52246307  0.74682990  0.39731451     0.36500
C4166       C  0.62898036  0.74140572  0.41590626     0.36400
N4167       N  0.99539225  0.74099965  0.40174178    -0.43900
N4168       N  0.65067929  0.74010421  0.41826889    -0.43900
C4169       C  0.55250852  0.71555692  0.09854022    -0.00300
C4170       C  0.54048173  0.72830563  0.08042554    -0.12200
C4171       C  0.55838509  0.74915647  0.05960688     0.02000
C4172       C  0.58911440  0.75773738  0.05671288    -0.00400
C4173       C  0.60124239  0.74574010  0.07552050    -0.12100
C4174       C  0.58347509  0.72508835  0.09628751     0.01800
H4175       H  0.51669990  0.72113594  0.08185622     0.14800
H4176       H  0.62493678  0.75254736  0.07398408     0.14800
C4177       C  0.59793829  0.71464645  0.11537382     0.36500
C4178       C  0.54414754  0.75989834  0.04059322     0.36400
N4179       N  0.60968032  0.70641319  0.13061541    -0.43900
N4180       N  0.53254899  0.76833598  0.02538346    -0.43900
C4181       C  0.67536378  0.91305687  0.43348187    -0.00300
C4182       C  0.69457451  0.94373748  0.43960863    -0.12200
C4183       C  0.69346342  0.96630478  0.42409060     0.02000
C4184       C  0.67254217  0.95827992  0.40220381    -0.00400
C4185       C  0.65468276  0.92781090  0.39497406    -0.12100
C4186       C  0.65616464  0.90524889  0.41012472     0.01800
H4187       H  0.70949456  0.95008423  0.45739700     0.14800
H4188       H  0.63979040  0.92168351  0.37723243     0.14800
C4189       C  0.63848853  0.87442852  0.40076004     0.36500
C4190       C  0.71281385  0.99740088  0.43201560     0.36400
N4191       N  0.62458128  0.84978841  0.39305526    -0.43900
N4192       N  0.72831967  0.02234416  0.43827926    -0.43900
C4193       C  0.78380208  0.82870378  0.39615451    -0.00300
C4194       C  0.77230586  0.84773648  0.39032818    -0.12200
C4195       C  0.75153903  0.84910507  0.40835526     0.02000
C4196       C  0.74134669  0.83044094  0.43229620    -0.00400
C4197       C  0.75194653  0.81049287  0.43737993    -0.12100
C4198       C  0.77346635  0.80992164  0.41989123     0.01800
H4199       H  0.78035251  0.86227501  0.37207686     0.14800
H4200       H  0.74482355  0.79665089  0.45611312     0.14800
C4201       C  0.78700192  0.79260745  0.42864295     0.36500
C4202       C  0.74144632  0.87006094  0.40206230     0.36400
N4203       N  0.79803567  0.77915933  0.43644859    -0.43900
N4204       N  0.73344498  0.88696681  0.39727195    -0.43900
C4205       C  0.66087788  0.93970057  0.10103047    -0.00300
C4206       C  0.63433681  0.91760825  0.08813075    -0.12200
C4207       C  0.63463586  0.89803908  0.06807625     0.02000
C4208       C  0.66224728  0.90014336  0.05999355    -0.00400
C4209       C  0.68857993  0.92095655  0.07407442    -0.12100
C4210       C  0.68812881  0.94039365  0.09444889     0.01800
H4211       H  0.61291791  0.91575502  0.09323776     0.14800
H4212       H  0.70983678  0.92246237  0.06891167     0.14800
C4213       C  0.71611400  0.96054482  0.10804287     0.36500
C4214       C  0.60590698  0.87640228  0.05623536     0.36400
N4215       N  0.73871087  0.97649434  0.11886147    -0.43900
N4216       N  0.62563371  0.91472200  0.49985906    -0.43900
C4217       C  0.78373543  0.83378375  0.09330745    -0.00300
C4218       C  0.76525956  0.80669471  0.07897978    -0.12200
C4219       C  0.74292496  0.80396887  0.06036708     0.02000
C4220       C  0.73777941  0.82829401  0.05654950    -0.00400
C4221       C  0.75562786  0.85498702  0.07149018    -0.12100
C4222       C  0.77854343  0.85814007  0.08929221     0.01800
H4223       H  0.76927091  0.78803429  0.08118773     0.14800
H4224       H  0.75218743  0.87397562  0.06872818     0.14800
C4225       C  0.79655649  0.88709087  0.10249252     0.36500
C4226       C  0.72749810  0.77697490  0.04373565     0.36400
N4227       N  0.81106533  0.91058931  0.11249821    -0.43900
N4228       N  0.71526302  0.75545795  0.03022297    -0.43900
Fe4229     Fe  0.70896297  0.87109310  0.49322645     1.65800
Fe4230     Fe  0.62653104  0.83147060  0.99345814     1.73200
Fe4231     Fe  0.66351911  0.79171857  0.99524551     1.54400
O4232       O  0.69862512  0.80621465  0.96679880    -0.81800
O4233       O  0.61061009  0.80497693  0.52291661    -0.80100
O4234       O  0.72125471  0.85641754  0.96342223    -0.84300
O4235       O  0.72701112  0.85322048  0.52069348    -0.79200
O4236       O  0.63314697  0.77470372  0.96237017    -0.80900
O4237       O  0.64842901  0.87076412  0.52020680    -0.83700
C4238       C  0.71940150  0.82780164  0.53168953     0.97100
C4239       C  0.71841965  0.83124555  0.95623792     1.04500
O4240       O  0.66453626  0.83066765  0.99500632    -1.12700
O4241       O  0.64209450  0.86362940  0.96175789    -0.75100
O4242       O  0.69148503  0.89160364  0.96838712    -0.78600
O4243       O  0.69481677  0.80393315  0.52589792    -0.79300
C4244       C  0.66760341  0.88656502  0.95611365     0.96000
O4245       O  0.69756961  0.88885921  0.52679558    -0.77200
O4246       O  0.60745861  0.79874487  0.96324918    -0.82400
C4247       C  0.61002721  0.78055617  0.52869911     0.98600
C4248       C  0.61212589  0.77859665  0.95335063     1.04500
O4249       O  0.62915957  0.77431578  0.51866987    -0.78100
C4250       C  0.67328933  0.88882170  0.53199095     1.02800
Fe4251     Fe  0.87074522  0.66514725  0.01153219     1.65800
Fe4252     Fe  0.79361114  0.62961623  0.50620467     1.73200
Fe4253     Fe  0.83615238  0.70636732  0.50843307     1.61200
O4254       O  0.87115925  0.72378731  0.53669825    -0.81800
O4255       O  0.77603624  0.64318120  0.98212857    -0.80100
O4256       O  0.88802592  0.69176731  0.54092588    -0.84300
O4257       O  0.89316932  0.70067709  0.98317865    -0.79200
O4258       O  0.80696105  0.69417459  0.54198834    -0.80900
O4259       O  0.80619327  0.60838581  0.98282914    -0.83700
C4260       C  0.88832659  0.72035508  0.97220457     0.97100
C4261       C  0.88795746  0.71542676  0.54814506     1.04500
O4262       O  0.83339926  0.66680100  0.50702116    -1.12700
O4263       O  0.80348965  0.61010793  0.53918860    -0.75100
O4264       O  0.85260440  0.62804060  0.53364408    -0.78600
O4265       O  0.86599916  0.72307098  0.97929782    -0.79300
C4266       C  0.82762184  0.61068415  0.54574119     0.96000
O4267       O  0.85627157  0.63539653  0.97839485    -0.77200
O4268       O  0.77481068  0.64535137  0.53538690    -0.82400
C4269       C  0.78026908  0.66832876  0.97326479     0.98600
C4270       C  0.78321580  0.66979303  0.54854551     1.04500
O4271       O  0.80110454  0.69329370  0.98268052    -0.78100
C4272       C  0.83073468  0.61356633  0.97125780     1.02800
C4273       C  0.97466319  0.99840230  0.63576387     0.02200
C4274       C  0.97247166  0.96981548  0.63538172     0.02200
C4275       C  0.99874900  0.96761588  0.63569930     0.02200
C4276       C  0.52555917  0.99236831  0.63381049     0.02200
C4277       C  0.53276250  0.52737961  0.62726079     0.02200
C4278       C  0.50545452  0.52778189  0.62726423     0.02200
C4279       C  0.81390664  0.98305269  0.65590396     0.80100
N4280       N  0.81277439  0.51039718  0.64197228    -0.78200
C4281       C  0.83635618  0.53146787  0.62648033     0.82500
N4282       N  0.86230933  0.53066436  0.62542254    -0.78200
C4283       C  0.86364875  0.00242208  0.63900434     0.82600
N4284       N  0.83984647  0.98203929  0.65465195    -0.79900
C4285       C  0.69282199  0.51453708  0.63730382     0.80100
N4286       N  0.66644041  0.51449154  0.63672027    -0.78200
C4287       C  0.63672187  0.98983624  0.62704089     0.82500
N4288       N  0.64165068  0.97127778  0.61068647    -0.78200
C4289       C  0.66968905  0.97486649  0.60826811     0.82600
N4290       N  0.69322605  0.99792417  0.62216783    -0.79900
C4291       C  0.69691679  0.66877350  0.62724198     0.80100
N4292       N  0.67056476  0.64207920  0.62716435    -0.78200
C4293       C  0.64566514  0.63903067  0.64000245     0.82500
N4294       N  0.64697146  0.66316404  0.65276073    -0.78200
C4295       C  0.67295368  0.69027571  0.65282439     0.82600
N4296       N  0.69803191  0.69293090  0.64020705    -0.79900
C4297       C  0.98006629  0.66654053  0.64049959     0.80100
N4298       N  0.99878291  0.69044973  0.62380829    -0.78200
C4299       C  0.51710683  0.68496670  0.59737175     0.82500
N4300       N  0.52066683  0.66075331  0.60133935    -0.78200
C4301       C  0.00621616  0.64177157  0.62712053     0.82600
N4302       N  0.98430885  0.64265166  0.64193423    -0.79900
C4303       C  0.81091832  0.82953026  0.60377030     0.80100
N4304       N  0.83634682  0.85668437  0.60766000    -0.78200
C4305       C  0.85837329  0.85929081  0.62482051     0.82500
N4306       N  0.85520657  0.83443108  0.63752862    -0.78200
C4307       C  0.83069954  0.80689014  0.63345745     0.82600
N4308       N  0.80817366  0.80442423  0.61660187    -0.79900
C4309       C  0.52189535  0.82682665  0.64698514     0.80100
N4310       N  0.52199285  0.85332281  0.64624729    -0.78200
C4311       C  0.00169619  0.85669741  0.63112070     0.82500
N4312       N  0.98026539  0.83229759  0.61738288    -0.78200
C4313       C  0.98033079  0.80594699  0.61742876     0.82600
N4314       N  0.00205405  0.80395034  0.63168248    -0.79900
Fe4315     Fe  0.83379414  0.62740398  0.74920061     1.65800
Fe4316     Fe  0.79120493  0.66087998  0.74663065     1.73200
Fe4317     Fe  0.86805246  0.70387248  0.74519462     1.54400
O4318       O  0.89042763  0.69297340  0.77468544    -0.81800
O4319       O  0.80142428  0.68894855  0.71198252    -0.80100
O4320       O  0.86225835  0.64373822  0.78277641    -0.84300
O4321       O  0.86933353  0.64329614  0.72182561    -0.79200
O4322       O  0.85406113  0.72114876  0.77682009    -0.80900
O4323       O  0.77294055  0.62370869  0.72019918    -0.83700
C4324       C  0.88652397  0.66735733  0.70852169     0.97100
C4325       C  0.88487331  0.66940037  0.78815936     1.04500
O4326       O  0.83097419  0.66410742  0.74692064    -1.12700
O4327       O  0.77652442  0.63284845  0.78117609    -0.75100
O4328       O  0.79843123  0.60537348  0.77684690    -0.78600
O4329       O  0.88649579  0.69163714  0.71294615    -0.79300
C4330       C  0.77918829  0.61046514  0.78818452     0.96000
O4331       O  0.80556097  0.60740477  0.71580503    -0.77200
O4332       O  0.80397040  0.69732421  0.77328637    -0.82400
C4333       C  0.82561063  0.71257521  0.70453151     0.98600
C4334       C  0.82869429  0.71812642  0.78315705     1.04500
O4335       O  0.85075577  0.72018442  0.71581516    -0.78100
C4336       C  0.78111489  0.60626371  0.70950152     1.02800
Fe4337     Fe  0.62833126  0.79189800  0.76088983     1.65800
Fe4338     Fe  0.70536197  0.83459674  0.76194882     1.73200
Fe4339     Fe  0.66344443  0.86920026  0.76300163     1.54400
O4340       O  0.63071118  0.85439745  0.73210280    -0.81800
O4341       O  0.72050833  0.86372638  0.79518340    -0.80100
O4342       O  0.60937379  0.80443103  0.72957672    -0.84300
O4343       O  0.60624469  0.80268354  0.79133411    -0.79200
O4344       O  0.69609200  0.89132854  0.73243039    -0.80900
O4345       O  0.69226994  0.79944920  0.79008475    -0.83700
C4346       C  0.60981698  0.82694874  0.80188140     0.97100
C4347       C  0.61170907  0.82909809  0.72159797     1.04500
O4348       O  0.66568107  0.83190167  0.76183293    -1.12700
O4349       O  0.69500140  0.80565726  0.72887177    -0.75100
O4350       O  0.64527427  0.77525627  0.73054531    -0.78600
O4351       O  0.63092048  0.85262967  0.79392917    -0.79300
C4352       C  0.67113515  0.78259943  0.72059819     0.96000
O4353       O  0.64229019  0.77420158  0.79212475    -0.77200
O4354       O  0.72461652  0.87019716  0.73380097    -0.82400
C4355       C  0.71602950  0.88435167  0.80416518     0.98600
C4356       C  0.71894719  0.88994173  0.72452491     1.04500
O4357       O  0.69580396  0.88878820  0.79400576    -0.78100
C4358       C  0.66760289  0.77836278  0.79999648     1.02800
C4359       C  0.97258147  0.50443738  0.86716379     0.02200
C4360       C  0.97096383  0.97483227  0.85320563     0.02200
C4361       C  0.49748637  0.97010799  0.85874280     0.02200
C4362       C  0.52287971  0.49673922  0.86362778     0.02200
C4363       C  0.52584493  0.52559747  0.86525857     0.02200
C4364       C  0.49963960  0.52807868  0.86650212     0.02200
C4365       C  0.68293763  0.51533441  0.85357220     0.80100
N4366       N  0.65520470  0.51208312  0.85191223    -0.78200
C4367       C  0.63104309  0.48884880  0.86453784     0.82500
N4368       N  0.64158442  0.97322913  0.87817162    -0.78200
C4369       C  0.66904477  0.97558860  0.88042763     0.82600
N4370       N  0.68627375  0.49426473  0.86780347    -0.79900
C4371       C  0.81162067  0.97705583  0.87006868     0.80100
N4372       N  0.83953306  0.98180596  0.86463330    -0.78200
C4373       C  0.86153418  0.50723901  0.87624681     0.82500
N4374       N  0.85922822  0.52789571  0.89207582    -0.78200
C4375       C  0.83196842  0.52563012  0.89628928     0.82600
N4376       N  0.80676982  0.50218808  0.88482953    -0.79900
C4377       C  0.97946062  0.67083460  0.85333569     0.80100
N4378       N  0.00206081  0.69592997  0.86566234    -0.78200
C4379       C  0.52234584  0.69154429  0.87718834     0.82500
N4380       N  0.52215859  0.66510050  0.87636731    -0.78200
C4381       C  0.00573780  0.64519896  0.86201224     0.82600
N4382       N  0.98181543  0.64586175  0.85149913    -0.79900
C4383       C  0.68968664  0.66504029  0.89873410     0.80100
N4384       N  0.66421222  0.63767273  0.89563975    -0.78200
C4385       C  0.64098391  0.63487678  0.87997779     0.82500
N4386       N  0.64348451  0.65959437  0.86728782    -0.78200
C4387       C  0.66871913  0.68689148  0.86981426     0.82600
N4388       N  0.69191970  0.68962347  0.88554704    -0.79900
C4389       C  0.51970581  0.83110575  0.87194315     0.80100
N4390       N  0.51613235  0.85510551  0.86710237    -0.78200
C4391       C  0.49349229  0.85722428  0.87935553     0.82500
N4392       N  0.97221132  0.83511456  0.88937318    -0.78200
C4393       C  0.97522720  0.81080463  0.89511760     0.82600
N4394       N  0.49974401  0.80846996  0.88888923    -0.79900
C4395       C  0.80772340  0.83283394  0.88091433     0.80100
N4396       N  0.83290722  0.86033739  0.87801670    -0.78200
C4397       C  0.85611654  0.86402037  0.86161913     0.82500
N4398       N  0.85377224  0.84002115  0.84771087    -0.78200
C4399       C  0.82888662  0.81222185  0.85037126     0.82600
N4400       N  0.80574388  0.80860145  0.86721776    -0.79900
C4401       C  0.50166405  0.55798387  0.86551715    -0.00300
C4402       C  0.99221735  0.56812127  0.84232925    -0.12200
C4403       C  0.99376351  0.59588415  0.84007044     0.02000
C4404       C  0.00604016  0.61675580  0.86217492    -0.00400
C4405       C  0.51202132  0.60529424  0.88625051    -0.12100
C4406       C  0.51208530  0.57820004  0.88814611     0.01800
H4407       H  0.98308507  0.55222039  0.82512703     0.14800
H4408       H  0.51987753  0.62058346  0.90392763     0.14800
C4409       C  0.52199509  0.57143056  0.91386312     0.36500
C4410       C  0.98347189  0.60261872  0.81451000     0.36400
N4411       N  0.53003501  0.56643486  0.93466683    -0.43900
N4412       N  0.97521012  0.60791887  0.79399540    -0.43900
C4413       C  0.55638699  0.55286400  0.86786238    -0.00300
C4414       C  0.57271941  0.55671902  0.89248043    -0.12200
C4415       C  0.60066354  0.58280446  0.89685671     0.02000
C4416       C  0.61301277  0.60543200  0.87599866    -0.00400
C4417       C  0.59717651  0.60083630  0.85090306    -0.12100
C4418       C  0.56912959  0.57502669  0.84674089     0.01800
H4419       H  0.56297732  0.53975411  0.90881087     0.14800
H4420       H  0.60655491  0.61774237  0.83450092     0.14800
C4421       C  0.55404528  0.57205967  0.82060050     0.36500
C4422       C  0.61497330  0.58648668  0.92359428     0.36400
N4423       N  0.54226381  0.57005154  0.79951756    -0.43900
N4424       N  0.62629264  0.58943139  0.94510881    -0.43900
C4425       C  0.88426635  0.89361060  0.85940935    -0.00300
C4426       C  0.89924325  0.90264638  0.83346748    -0.12200
C4427       C  0.92700533  0.92945261  0.83085413     0.02000
C4428       C  0.94036577  0.94752221  0.85453500    -0.00400
C4429       C  0.92507660  0.93902689  0.88025590    -0.12100
C4430       C  0.89736091  0.91224525  0.88293734     0.01800
H4431       H  0.88927988  0.88866766  0.81521611     0.14800
H4432       H  0.93541935  0.95286823  0.89850251     0.14800
C4433       C  0.88401511  0.90342031  0.91044754     0.36500
C4434       C  0.94124804  0.93816058  0.80368211     0.36400
N4435       N  0.87335134  0.89617737  0.93249857    -0.43900
N4436       N  0.95251498  0.94519421  0.78184333    -0.43900
C4437       C  0.89074755  0.50830820  0.87306114    -0.00300
C4438       C  0.90887322  0.51399060  0.89670454    -0.12200
C4439       C  0.93529574  0.51247418  0.89527378     0.02000
C4440       C  0.94454079  0.50616989  0.86961541    -0.00400
C4441       C  0.92645324  0.99983171  0.83764771    -0.12100
C4442       C  0.90050498  0.00167472  0.84165946     0.01800
H4443       H  0.90172571  0.51838248  0.91661611     0.14800
H4444       H  0.93061846  0.99286423  0.81755648     0.14800
C4445       C  0.88089088  0.99576588  0.81809090     0.36500
C4446       C  0.95151903  0.51565331  0.92073107     0.36400
N4447       N  0.86523404  0.99122065  0.79919424    -0.43900
N4448       N  0.96408208  0.51775316  0.94134190    -0.43900
C4449       C  0.60195271  0.48810815  0.86408735    -0.00300
C4450       C  0.59986253  0.99926609  0.83599693    -0.12200
C4451       C  0.57287243  0.99967368  0.83385486     0.02000
C4452       C  0.55014388  0.49366919  0.86311401    -0.00400
C4453       C  0.55723492  0.48280634  0.88707197    -0.12100
C4454       C  0.58279253  0.47982173  0.88772774     0.01800
H4455       H  0.61419418  0.00441830  0.81770155     0.14800
H4456       H  0.54295633  0.47710938  0.90547280     0.14800
C4457       C  0.58962131  0.46980760  0.91339515     0.36500
C4458       C  0.56452350  0.00556115  0.80687186     0.36400
N4459       N  0.59520399  0.46180411  0.93393235    -0.43900
N4460       N  0.55795307  0.00979377  0.78495713    -0.43900
C4461       C  0.49436020  0.93996411  0.86310990    -0.00300
C4462       C  0.48833356  0.92776541  0.89021973    -0.12200
C4463       C  0.48650922  0.90014957  0.89586162     0.02000
C4464       C  0.49132630  0.88447592  0.87412415    -0.00400
C4465       C  0.00087027  0.90010413  0.84054393    -0.12100
C4466       C  0.00197898  0.92747188  0.83499741     0.01800
H4467       H  0.48566407  0.94025430  0.90715781     0.14800
H4468       H  0.00839430  0.89042858  0.82452732     0.14800
C4469       C  0.01157644  0.94079230  0.80759813     0.36500
C4470       C  0.48134706  0.88937633  0.92435987     0.36400
N4471       N  0.01898680  0.95091256  0.78539010    -0.43900
N4472       N  0.47717377  0.88085284  0.94725137    -0.43900
C4473       C  0.67041964  0.71284979  0.85473664    -0.00300
C4474       C  0.64473565  0.71575025  0.85435712    -0.12200
C4475       C  0.64350185  0.73737636  0.83752506     0.02000
C4476       C  0.66856459  0.75702711  0.82058756    -0.00400
C4477       C  0.69463781  0.75462212  0.82176069    -0.12100
C4478       C  0.69556617  0.73256912  0.83826806     0.01800
H4479       H  0.62516012  0.70046598  0.86680853     0.14800
H4480       H  0.71389416  0.76892061  0.80854638     0.14800
C4481       C  0.72115764  0.72842952  0.83547917     0.36500
C4482       C  0.61594679  0.73829983  0.83784227     0.36400
N4483       N  0.74126111  0.72450124  0.83281197    -0.43900
N4484       N  0.59376736  0.73887835  0.83796685    -0.43900
C4485       C  0.54451159  0.82939341  0.85771162    -0.00300
C4486       C  0.53949124  0.80151577  0.84795434    -0.12200
C4487       C  0.56070554  0.79958510  0.83082127     0.02000
C4488       C  0.58808516  0.82611713  0.82340628    -0.00400
C4489       C  0.59380457  0.85368944  0.83509886    -0.12100
C4490       C  0.57237404  0.85556580  0.85173672     0.01800
H4491       H  0.51809737  0.78129392  0.85232309     0.14800
H4492       H  0.61475187  0.87430801  0.83046811     0.14800
C4493       C  0.57930825  0.88480264  0.86201575     0.36500
C4494       C  0.55250713  0.77021270  0.82008560     0.36400
N4495       N  0.58427791  0.90802131  0.87027431    -0.43900
N4496       N  0.54525518  0.74644558  0.81158783    -0.43900
C4497       C  0.73698874  0.90516082  0.82590413    -0.00300
C4498       C  0.76210172  0.90257831  0.83310955    -0.12200
C4499       C  0.78577384  0.92469891  0.84881074     0.02000
C4500       C  0.78484600  0.95042997  0.85784995    -0.00400
C4501       C  0.75849239  0.95157171  0.85316782    -0.12100
C4502       C  0.73467254  0.92930303  0.83746879     0.01800
H4503       H  0.76406413  0.88377966  0.82546639     0.14800
H4504       H  0.75695811  0.97066168  0.86066432     0.14800
C4505       C  0.70865522  0.93246947  0.83316983     0.36500
C4506       C  0.81088829  0.92043126  0.85482233     0.36400
N4507       N  0.68784789  0.93511221  0.82979905    -0.43900
N4508       N  0.83110385  0.91719524  0.85962128    -0.43900
C4509       C  0.90654069  0.67099250  0.80958601    -0.00300
C4510       C  0.90362437  0.64372284  0.81889159    -0.12200
C4511       C  0.92610199  0.64309051  0.83445239     0.02000
C4512       C  0.95271641  0.67045054  0.84119544    -0.00400
C4513       C  0.95430845  0.69783272  0.83443966    -0.12100
C4514       C  0.93153921  0.69838109  0.81889504     0.01800
H4515       H  0.88419439  0.62237865  0.81289964     0.14800
H4516       H  0.97401982  0.71903315  0.84025458     0.14800
C4517       C  0.93482166  0.72739597  0.81270865     0.36500
C4518       C  0.92102496  0.61369677  0.84239366     0.36400
N4519       N  0.93759219  0.75075818  0.80799220    -0.43900
N4520       N  0.91676370  0.59002884  0.84842356    -0.43900
C4521       C  0.75748473  0.58835374  0.80887003    -0.00300
C4522       C  0.73193316  0.59020236  0.81576148    -0.12200
C4523       C  0.70792625  0.56741324  0.83085872     0.02000
C4524       C  0.70910123  0.54170525  0.83990694    -0.00400
C4525       C  0.73562606  0.54089406  0.83490253    -0.12100
C4526       C  0.75966835  0.56375830  0.81958456     0.01800
H4527       H  0.72992598  0.60905417  0.80825921     0.14800
H4528       H  0.73730443  0.52177524  0.84216103     0.14800
C4529       C  0.78585847  0.56081547  0.81502887     0.36500
C4530       C  0.68238248  0.57131848  0.83601932     0.36400
N4531       N  0.80668951  0.55817207  0.81153752    -0.43900
N4532       N  0.66200871  0.57465022  0.83980723    -0.43900
C4533       C  0.82848316  0.74159975  0.80086066    -0.00300
C4534       C  0.81204925  0.73402858  0.82602770    -0.12200
C4535       C  0.81211662  0.75650392  0.84291478     0.02000
C4536       C  0.82749686  0.78694051  0.83385603    -0.00400
C4537       C  0.84370954  0.79414914  0.80850855    -0.12100
C4538       C  0.84475975  0.77207175  0.79238251     0.01800
H4539       H  0.79996115  0.71066981  0.83293165     0.14800
H4540       H  0.85590849  0.81735633  0.80116812     0.14800
C4541       C  0.86252207  0.78128678  0.76692824     0.36500
C4542       C  0.79792483  0.74795318  0.87006746     0.36400
N4543       N  0.87692877  0.78863549  0.74667193    -0.43900
N4544       N  0.78668655  0.74094158  0.89189923    -0.43900
C4545       C  0.59013638  0.82781371  0.70016608    -0.00300
C4546       C  0.56081467  0.80253743  0.69994087    -0.12200
C4547       C  0.53846163  0.80130082  0.68238464     0.02000
C4548       C  0.54536707  0.82527511  0.66377127    -0.00400
C4549       C  0.57496068  0.85013758  0.66328427    -0.12100
C4550       C  0.59718920  0.85169611  0.68128120     0.01800
H4551       H  0.55479009  0.78429867  0.71468694     0.14800
H4552       H  0.58060176  0.86878161  0.64915522     0.14800
C4553       C  0.62697182  0.87805585  0.67987424     0.36500
C4554       C  0.50804225  0.77667962  0.68618338     0.36400
N4555       N  0.65082291  0.89920132  0.67882539    -0.43900
N4556       N  0.48371411  0.75706590  0.68996989    -0.43900
C4557       C  0.82529107  0.73338667  0.68276770    -0.00300
C4558       C  0.85324679  0.75716801  0.67344497    -0.12200
C4559       C  0.85546194  0.78069044  0.65709798     0.02000
C4560       C  0.82902938  0.78049043  0.64831790    -0.00400
C4561       C  0.80091678  0.75582703  0.65610982    -0.12100
C4562       C  0.79877171  0.73257450  0.67335083     0.01800
H4563       H  0.87396251  0.75832779  0.68004333     0.14800
H4564       H  0.78049671  0.75557735  0.65016643     0.14800
C4565       C  0.76911334  0.70937385  0.68224414     0.36500
C4566       C  0.88554305  0.80536143  0.65112427     0.36400
N4567       N  0.74528258  0.69091584  0.68942313    -0.43900
N4568       N  0.90963967  0.82537805  0.64703448    -0.43900
C4569       C  0.95459918  0.66568052  0.65652670    -0.00300
C4570       C  0.94843352  0.68930096  0.65333975    -0.12200
C4571       C  0.92534000  0.68978064  0.66877226     0.02000
C4572       C  0.90837186  0.66670715  0.68846055    -0.00400
C4573       C  0.91336344  0.64236420  0.69039133    -0.12100
C4574       C  0.93574701  0.64138767  0.67479996     0.01800
H4575       H  0.96158896  0.70748243  0.63877490     0.14800
H4576       H  0.90008696  0.62396465  0.70475176     0.14800
C4577       C  0.93783307  0.61454347  0.67837274     0.36500
C4578       C  0.91913383  0.71375702  0.66344315     0.36400
N4579       N  0.93853555  0.59254226  0.68123691    -0.43900
N4580       N  0.91398295  0.73285931  0.65919876    -0.43900
C4581       C  0.67357086  0.71653811  0.66656910    -0.00300
C4582       C  0.70005039  0.73834453  0.67958860    -0.12200
C4583       C  0.70044201  0.76127492  0.69578414     0.02000
C4584       C  0.67361875  0.76243745  0.69962944    -0.00400
C4585       C  0.64780792  0.74192179  0.68482644    -0.12100
C4586       C  0.64768979  0.71951199  0.66810575     0.01800
H4587       H  0.72032108  0.73684081  0.67800773     0.14800
H4588       H  0.62738600  0.74312241  0.68655864     0.14800
C4589       C  0.62090919  0.70047054  0.65214556     0.36500
C4590       C  0.72848725  0.78232977  0.70903509     0.36400
N4591       N  0.59956895  0.68541099  0.63915569    -0.43900
N4592       N  0.75102776  0.79930449  0.71947979    -0.43900
C4593       C  0.71655012  0.53530269  0.65687199    -0.00300
C4594       C  0.74674776  0.55235490  0.64791132    -0.12200
C4595       C  0.76853465  0.57552013  0.66472599     0.02000
C4596       C  0.75994000  0.58208739  0.69068580    -0.00400
C4597       C  0.73018941  0.56414289  0.70004074    -0.12100
C4598       C  0.70873531  0.54067966  0.68376022     0.01800
H4599       H  0.75307984  0.54837644  0.62738218     0.14800
H4600       H  0.72375064  0.56820883  0.72050894     0.14800
C4601       C  0.67905167  0.52189897  0.69568416     0.36500
C4602       C  0.79911471  0.59304114  0.65447657     0.36400
N4603       N  0.65544413  0.50684124  0.70555288    -0.43900
N4604       N  0.82366782  0.60716693  0.64637248    -0.43900
C4605       C  0.78780711  0.95962226  0.67222971    -0.00300
C4606       C  0.77860315  0.92921822  0.66764040    -0.12200
C4607       C  0.75548995  0.90609646  0.68360775     0.02000
C4608       C  0.74083376  0.91317566  0.70474101    -0.00400
C4609       C  0.74940728  0.94359604  0.70881979    -0.12100
C4610       C  0.77292293  0.96675217  0.69306440     0.01800
H4611       H  0.78966908  0.92365599  0.65173858     0.14800
H4612       H  0.73884809  0.94943027  0.72536763     0.14800
C4613       C  0.78312258  0.99760927  0.70049117     0.36500
C4614       C  0.74709043  0.87527758  0.67766053     0.36400
N4615       N  0.77833476  0.52325196  0.69664829    -0.43900
N4616       N  0.74032293  0.85057801  0.67290787    -0.43900
C4617       C  0.56173969  0.55626886  0.62987297    -0.00300
C4618       C  0.56843556  0.57138426  0.65555521    -0.12200
C4619       C  0.59571041  0.59820262  0.65956834     0.02000
C4620       C  0.61673440  0.61049967  0.63738518    -0.00400
C4621       C  0.60978144  0.59558201  0.61155098    -0.12100
C4622       C  0.58243786  0.56883749  0.60755441     0.01800
H4623       H  0.55244203  0.56177985  0.67273272     0.14800
H4624       H  0.62553764  0.60519831  0.59420147     0.14800
C4625       C  0.57584427  0.55535745  0.58017774     0.36500
C4626       C  0.60203378  0.61171616  0.68696179     0.36400
N4627       N  0.57082742  0.54489106  0.55807139    -0.43900
N4628       N  0.60696536  0.62228251  0.70903004    -0.43900
C4629       C  0.00337559  0.55723610  0.62737285    -0.00300
C4630       C  0.00398801  0.57103442  0.65276014    -0.12200
C4631       C  0.00665631  0.59946293  0.65313949     0.02000
C4632       C  0.00806698  0.61413323  0.62772800    -0.00400
C4633       C  0.50883708  0.59813776  0.59827624    -0.12100
C4634       C  0.50870055  0.57091389  0.59947036     0.01800
H4635       H  0.00258869  0.55964219  0.67224015     0.14800
H4636       H  0.51023506  0.60837198  0.57814694     0.14800
C4637       C  0.50965766  0.55695700  0.57362909     0.36500
C4638       C  0.00881655  0.61347927  0.67982776     0.36400
N4639       N  0.50993503  0.54562657  0.55283864    -0.43900
N4640       N  0.01066406  0.62470278  0.70124644    -0.43900
C4641       C  0.55343168  0.99033602  0.63294573    -0.00300
C4642       C  0.56843612  0.48968428  0.60001030    -0.12200
C4643       C  0.59509874  0.48856560  0.59740554     0.02000
C4644       C  0.60675267  0.98739918  0.62886814    -0.00400
C4645       C  0.59791755  0.99418981  0.65443208    -0.12100
C4646       C  0.57150023  0.99560100  0.65665779     0.01800
H4647       H  0.55358802  0.48398077  0.58225525     0.14800
H4648       H  0.61193154  0.99875193  0.67274962     0.14800
C4649       C  0.56345298  0.00251507  0.68341918     0.36500
C4650       C  0.60207562  0.48077591  0.57054547     0.36400
N4651       N  0.55711475  0.00809085  0.70492770    -0.43900
N4652       N  0.60753306  0.47464994  0.54888497    -0.43900
C4653       C  0.99676921  0.93768040  0.63533477    -0.00300
C4654       C  0.99199696  0.92263142  0.60981101    -0.12200
C4655       C  0.99354328  0.89626035  0.60791019     0.02000
C4656       C  0.00029952  0.88472771  0.63188715    -0.00400
C4657       C  0.50120556  0.89745649  0.65743910    -0.12100
C4658       C  0.49847168  0.92314400  0.65880054     0.01800
H4659       H  0.98786926  0.93201254  0.59120232     0.14800
H4660       H  0.50364373  0.88757296  0.67656783     0.14800
C4661       C  0.49768510  0.93517872  0.68581947     0.36500
C4662       C  0.98944008  0.88230500  0.58087660     0.36400
N4663       N  0.49636968  0.94444006  0.70748739    -0.43900
N4664       N  0.98614054  0.87114918  0.55919132    -0.43900
C4665       C  0.88642164  0.88852976  0.62863554    -0.00300
C4666       C  0.89878352  0.90796679  0.60556281    -0.12200
C4667       C  0.92684611  0.93436272  0.60736340     0.02000
C4668       C  0.94258729  0.94209654  0.63283548    -0.00400
C4669       C  0.93013692  0.92308352  0.65605008    -0.12100
C4670       C  0.90229788  0.89644377  0.65422041     0.01800
H4671       H  0.88709263  0.90190339  0.58571847     0.14800
H4672       H  0.94232929  0.92906489  0.67563128     0.14800
C4673       C  0.89046804  0.87803220  0.67906727     0.36500
C4674       C  0.93975306  0.95242095  0.58249190     0.36400
N4675       N  0.88112073  0.86332618  0.69901561    -0.43900
N4676       N  0.95018545  0.96684129  0.56254478    -0.43900
C4677       C  0.94675210  0.00047910  0.63722511    -0.00300
C4678       C  0.93182234  0.50740830  0.60799943    -0.12200
C4679       C  0.90600520  0.50980179  0.61030878     0.02000
C4680       C  0.89225341  0.00171586  0.63782533    -0.00400
C4681       C  0.90176807  0.99294594  0.66172793    -0.12100
C4682       C  0.92899035  0.99281437  0.66174511     0.01800
H4683       H  0.94164239  0.50862734  0.58758905     0.14800
H4684       H  0.88828068  0.98690068  0.68071226     0.14800
C4685       C  0.93879885  0.98569686  0.68737344     0.36500
C4686       C  0.89248162  0.51263107  0.58498709     0.36400
N4687       N  0.94682886  0.98020691  0.70792853    -0.43900
N4688       N  0.88141879  0.51474437  0.56477919    -0.43900
C4689       C  0.82963499  0.59205462  0.94979966    -0.00300
C4690       C  0.80787104  0.56131526  0.95281851    -0.12200
C4691       C  0.80810062  0.53943248  0.93552616     0.02000
C4692       C  0.82991733  0.54813957  0.91409617    -0.00400
C4693       C  0.85123780  0.57887413  0.91053943    -0.12100
C4694       C  0.85128786  0.60079067  0.92805108     0.01800
H4695       H  0.79149799  0.55409885  0.96974870     0.14800
H4696       H  0.86807768  0.58579546  0.89404771     0.14800
C4697       C  0.87356205  0.63203339  0.92293419     0.36500
C4698       C  0.78744776  0.50803837  0.94179213     0.36400
N4699       N  0.89141088  0.65704358  0.91873870    -0.43900
N4700       N  0.76696914  0.98070330  0.94079299    -0.43900
C4701       C  0.83320736  0.55339231  0.60863671    -0.00300
C4702       C  0.80505220  0.54506946  0.59687179    -0.12200
C4703       C  0.80215091  0.56327637  0.57663114     0.02000
C4704       C  0.82767275  0.59103239  0.56857385    -0.00400
C4705       C  0.85524912  0.60001938  0.58172177    -0.12100
C4706       C  0.85840512  0.58149011  0.60098944     0.01800
H4707       H  0.78555727  0.52343898  0.60224153     0.14800
H4708       H  0.87499626  0.62143709  0.57623778     0.14800
C4709       C  0.88830871  0.59173428  0.61139582     0.36500
C4710       C  0.77335707  0.55165122  0.56313827     0.36400
N4711       N  0.91260003  0.59997690  0.61881536    -0.43900
N4712       N  0.75021416  0.54190050  0.55233221    -0.43900
C4713       C  0.71467904  0.66760105  0.91629119    -0.00300
C4714       C  0.71997436  0.64335802  0.91683037    -0.12200
C4715       C  0.74192372  0.64358621  0.93421661     0.02000
C4716       C  0.75917470  0.66846562  0.95197306    -0.00400
C4717       C  0.75456141  0.69322946  0.95070075    -0.12100
C4718       C  0.73251494  0.69292692  0.93326340     0.01800
H4719       H  0.70680905  0.62399669  0.90360282     0.14800
H4720       H  0.76735473  0.71244163  0.96417828     0.14800
C4721       C  0.72744728  0.71809027  0.93450349     0.36500
C4722       C  0.74630688  0.61798030  0.93301417     0.36400
N4723       N  0.72309854  0.73806868  0.93537998    -0.43900
N4724       N  0.74975649  0.59742918  0.93200187    -0.43900
C4725       C  0.91021234  0.74186265  0.95108459    -0.00300
C4726       C  0.94130354  0.75356138  0.95495783    -0.12200
C4727       C  0.96281675  0.77604821  0.93712949     0.02000
C4728       C  0.95341575  0.78679927  0.91440312    -0.00400
C4729       C  0.92241905  0.77491732  0.91033498    -0.12100
C4730       C  0.90092242  0.75267476  0.92826319     0.01800
H4731       H  0.94888884  0.74603798  0.97266774     0.14800
H4732       H  0.91492833  0.78294202  0.89291626     0.14800
C4733       C  0.86941534  0.74074999  0.92229099     0.36500
C4734       C  0.99436710  0.78926355  0.94375521     0.36400
N4735       N  0.84414400  0.73107398  0.91751085    -0.43900
N4736       N  0.51916005  0.79565582  0.95464070    -0.43900
C4737       C  0.72287069  0.67118722  0.61099824    -0.00300
C4738       C  0.72390535  0.64470729  0.60639194    -0.12200
C4739       C  0.74413589  0.64395718  0.58720351     0.02000
C4740       C  0.76408753  0.67019905  0.57186663    -0.00400
C4741       C  0.76478934  0.69730269  0.57816559    -0.12100
C4742       C  0.74444550  0.69799204  0.59740242     0.01800
H4743       H  0.70816543  0.62409016  0.61730223     0.14800
H4744       H  0.78029044  0.71783005  0.56700807     0.14800
C4745       C  0.74479209  0.72597287  0.60119453     0.36500
C4746       C  0.74382210  0.61587309  0.58396793     0.36400
N4747       N  0.74451750  0.74809363  0.60464833    -0.43900
N4748       N  0.74338226  0.59325467  0.58165734    -0.43900
C4749       C  0.95608820  0.77973929  0.60259064    -0.00300
C4750       C  0.92712677  0.77601739  0.60291661    -0.12200
C4751       C  0.90397030  0.75397848  0.58674808     0.02000
C4752       C  0.90967848  0.73512751  0.56950789    -0.00400
C4753       C  0.93814536  0.73755631  0.57049263    -0.12100
C4754       C  0.96136306  0.75978618  0.58664721     0.01800
H4755       H  0.92269262  0.79081037  0.61552626     0.14800
H4756       H  0.94291062  0.72336081  0.55721374     0.14800
C4757       C  0.99099728  0.76355799  0.58411838     0.36500
C4758       C  0.87466552  0.75133059  0.58831036     0.36400
N4759       N  0.01486329  0.76689698  0.58168389    -0.43900
N4760       N  0.85122694  0.74927663  0.58966278    -0.43900
C4761       C  0.54639847  0.71656796  0.89396567    -0.00300
C4762       C  0.57245402  0.71516822  0.90000239    -0.12200
C4763       C  0.59446379  0.73531631  0.91838348     0.02000
C4764       C  0.59116498  0.75828066  0.93123481    -0.00400
C4765       C  0.56572918  0.76058225  0.92416157    -0.12100
C4766       C  0.54338750  0.73993330  0.90605818     0.01800
H4767       H  0.57550925  0.69767275  0.89073770     0.14800
H4768       H  0.56248832  0.77783630  0.93368309     0.14800
C4769       C  0.51668708  0.74196552  0.90204039     0.36500
C4770       C  0.61948639  0.73082046  0.92406000     0.36400
N4771       N  0.99595498  0.74393097  0.90053384    -0.43900
N4772       N  0.63927656  0.72680820  0.92855851    -0.43900
C4773       C  0.53811649  0.70942654  0.57792372    -0.00300
C4774       C  0.54777929  0.73973179  0.58409030    -0.12200
C4775       C  0.57084175  0.76346673  0.56835246     0.02000
C4776       C  0.58502913  0.75705011  0.54617490    -0.00400
C4777       C  0.57420482  0.72674745  0.53924538    -0.12100
C4778       C  0.55084727  0.70316563  0.55439815     0.01800
H4779       H  0.53805334  0.74496928  0.60185088     0.14800
H4780       H  0.58376178  0.72135017  0.52143180     0.14800
C4781       C  0.53979169  0.67283417  0.54444970     0.36500
C4782       C  0.58024200  0.79405243  0.57618129     0.36400
N4783       N  0.53106592  0.64875240  0.53598245    -0.43900
N4784       N  0.58763500  0.81853750  0.58252621    -0.43900
C4785       C  0.66969265  0.90896926  0.93500798    -0.00300
C4786       C  0.68996620  0.93990875  0.93947364    -0.12200
C4787       C  0.69105792  0.96200483  0.92133030     0.02000
C4788       C  0.67194008  0.95331954  0.89795643    -0.00400
C4789       C  0.65287671  0.92248408  0.89270575    -0.12100
C4790       C  0.65136178  0.90037789  0.91099361     0.01800
H4791       H  0.70410297  0.94693239  0.95783507     0.14800
H4792       H  0.63910052  0.91572237  0.87425039     0.14800
C4793       C  0.63103279  0.86905578  0.90445508     0.36500
C4794       C  0.71056273  0.99343583  0.92802821     0.36400
N4795       N  0.61474028  0.84390429  0.89940664    -0.43900
N4796       N  0.72607722  0.01867366  0.93329352    -0.43900
C4797       C  0.78298738  0.82998427  0.89904451    -0.00300
C4798       C  0.76949147  0.84714329  0.89263634    -0.12200
C4799       C  0.74843221  0.84800858  0.91083352     0.02000
C4800       C  0.73992477  0.83077769  0.93569651    -0.00400
C4801       C  0.75316646  0.81329247  0.94188331    -0.12100
C4802       C  0.77499082  0.81329722  0.92415850     0.01800
H4803       H  0.77578520  0.86027129  0.87346474     0.14800
H4804       H  0.74744116  0.80063652  0.96133918     0.14800
C4805       C  0.79070618  0.79822643  0.93338049     0.36500
C4806       C  0.73578372  0.86656437  0.90351433     0.36400
N4807       N  0.80353073  0.78652075  0.94115328    -0.43900
N4808       N  0.72567246  0.88150687  0.89783919    -0.43900
C4809       C  0.67388666  0.95485663  0.58850993    -0.00300
C4810       C  0.65611310  0.94585755  0.56439384    -0.12200
C4811       C  0.65622223  0.92509487  0.54577678     0.02000
C4812       C  0.67393823  0.91182685  0.55129902    -0.00400
C4813       C  0.69314167  0.92190038  0.57463370    -0.12100
C4814       C  0.69340555  0.94340937  0.59313619     0.01800
H4815       H  0.64215132  0.95548221  0.55975463     0.14800
H4816       H  0.70762366  0.91265690  0.57865145     0.14800
C4817       C  0.71328977  0.95268348  0.61684924     0.36500
C4818       C  0.63910341  0.91920266  0.52033438     0.36400
N4819       N  0.72946100  0.96019028  0.63570331    -0.43900
N4820       N  0.58278846  0.85915182  0.04691321    -0.43900
C4821       C  0.78626593  0.82808778  0.58634093    -0.00300
C4822       C  0.77159018  0.80497695  0.56665343    -0.12200
C4823       C  0.74939764  0.80412706  0.54896928     0.02000
C4824       C  0.74087364  0.82626471  0.55135361    -0.00400
C4825       C  0.75577273  0.84949294  0.57080934    -0.12100
C4826       C  0.77843709  0.85080001  0.58787685     0.01800
H4827       H  0.77849919  0.78837818  0.56414416     0.14800
H4828       H  0.75014751  0.86714599  0.57224103     0.14800
C4829       C  0.79412431  0.87639961  0.60608620     0.36500
C4830       C  0.73784608  0.78206758  0.52686895     0.36400
N4831       N  0.80766854  0.89711706  0.62026151    -0.43900
N4832       N  0.72895333  0.76467423  0.50891373    -0.43900
loop_ 
_geom_bond_atom_site_label_1 
_geom_bond_atom_site_label_2 
_geom_bond_distance 
_geom_bond_site_symmetry_2 
_ccdc_geom_bond_type 
Fe1          O17   2.074   1_556  S
Fe1           O7   2.071   1_556  S
Fe1         O618   2.073       .  S
Fe1         O610   2.072       .  S
Fe1         O616   1.964       .  S
Fe2          O13   2.063       .  S
Fe2          O18   2.068       .  S
Fe2         O609   2.078       .  S
Fe2         O613   2.054       .  S
Fe2          O12   1.965       .  S
Fe3           O8   2.067       .  S
Fe3           O4   2.051       .  S
Fe3         O625   2.063       .  S
Fe3         O619   2.074       .  S
Fe3          O12   1.965       .  S
O4           C11   1.266       .  A
O5         Fe606   2.071   1_554  S
O5           C19   1.266       .  A
O6         Fe605   2.068       .  S
O6           C11   1.269       .  A
O7           C10   1.274       .  A
O8           C20   1.269       .  A
O9         Fe606   2.061   1_554  S
O9           C22   1.270       .  A
C10          O15   1.271       .  A
C10         C596   1.491       .  S
C11         C572   1.476       .  S
O12        Fe605   1.965       .  S
O13          C16   1.271       .  A
O14        Fe605   2.078       .  S
O14          C16   1.272       .  A
O15        Fe607   2.071   1_554  S
C16         C557   1.486       .  S
O17          C22   1.270       .  A
O18          C20   1.268       .  A
C19          O21   1.268       .  A
C19         C548   1.481       .  S
C20         C536   1.485       .  S
O21        Fe607   2.060   1_554  S
C22         C584   1.481       .  S
Fe23         O39   2.056       .  S
Fe23         O29   2.071       .  S
Fe23        O640   2.063       .  S
Fe23        O632   2.059       .  S
Fe23        O638   1.959       .  S
Fe24         O35   2.072       .  S
Fe24         O40   2.074       .  S
Fe24        O631   2.067   1_554  S
Fe24        O635   2.075   1_554  S
Fe24         O34   1.978       .  S
Fe25         O30   2.059       .  S
Fe25         O26   2.074       .  S
Fe25        O647   2.074   1_554  S
Fe25        O641   2.058   1_554  S
Fe25         O34   1.975       .  S
O26          C33   1.269       .  A
O27        Fe628   2.066       .  S
O27          C41   1.270       .  A
O28        Fe627   2.068       .  S
O28          C33   1.268       .  A
O29          C32   1.269       .  A
O30          C42   1.269       .  A
O31        Fe628   2.085       .  S
O31          C44   1.275       .  A
C32          O37   1.269       .  A
C32         C497   1.488       .  S
C33         C524   1.496       .  S
O34        Fe627   1.971       .  S
O35          C38   1.269       .  A
O36        Fe627   2.064       .  S
O36          C38   1.271       .  A
O37        Fe629   2.067       .  S
C38         C476   1.492       .  S
O39          C44   1.270       .  A
O40          C42   1.272       .  A
C41          O43   1.269       .  A
C41         C488   1.488       .  S
C42         C512   1.488       .  S
O43        Fe629   2.063       .  S
C44         C461   1.484       .  S
C45         C449   1.485       .  S
C45          C46   1.411       .  A
C45        C3674   1.409       .  A
C46         C440   1.485       .  S
C46          C47   1.409       .  A
C47         C425   1.483       .  S
C47        C2464   1.412       .  A
C48         C413   1.490       .  S
C48        C2463   1.416   1_455  A
C48        C1257   1.420       .  A
C49         C389   1.484       .  S
C49          C50   1.406       .  A
C49        C1256   1.410   1_545  A
C50        C2817   1.482       .  S
C50        C3669   1.408   1_455  A
C51         C377   1.482       .  S
C51          N56   1.359       .  A
C51        N1260   1.364       .  A
N52          C53   1.364       .  A
N52        C1259   1.363   1_545  A
C53         C473   1.489       .  S
C53          N54   1.361       .  A
N54        C1263   1.356       .  A
C55         C452   1.476       .  S
C55          N56   1.355       .  A
C55        N1262   1.351       .  A
C57         C365   1.492       .  S
C57          N58   1.351       .  A
C57        N1270   1.368       .  A
N58        C1267   1.344   1_545  A
C59         C416   1.482       .  S
C59          N60   1.353       .  A
C59        N1266   1.349       .  A
N60          C61   1.361       .  A
C61         C581   1.480       .  S
C61          N62   1.366       .  A
N62        C1265   1.365       .  A
C63         C509   1.488       .  S
C63          N64   1.357       .  A
C63          N68   1.363       .  A
N64          C65   1.352       .  A
C65         C392   1.473       .  S
C65          N66   1.354       .  A
N66          C67   1.357       .  A
C67         C353   1.483       .  S
C67          N68   1.363       .  A
C69         C341   1.500       .  S
C69          N70   1.367       .  A
C69          N74   1.354       .  A
N70        C2487   1.366       .  A
C71         C545   1.479       .  S
C71          N72   1.360       .  A
C71        N2486   1.363       .  A
N72        C2489   1.353       .  A
C73         C404   1.471       .  S
C73          N74   1.350       .  A
C73        N2488   1.352       .  A
C75         C593   1.491       .  S
C75          N76   1.361       .  A
C75          N80   1.367       .  A
N76          C77   1.355       .  A
C77         C437   1.475       .  S
C77          N78   1.349       .  A
N78          C79   1.353       .  A
C79         C332   1.488       .  S
C79          N80   1.365       .  A
C81         C320   1.487       .  S
C81          N82   1.360       .  A
C81        N2502   1.364       .  A
N82        C2499   1.358   1_455  A
C83         C428   1.474       .  S
C83          N84   1.352       .  A
C83        N2498   1.355       .  A
N84          C85   1.358       .  A
C85         C521   1.493       .  S
C85          N86   1.367       .  A
N86        C2497   1.368       .  A
Fe87        O103   2.068       .  S
Fe87         O93   2.055       .  S
Fe87        O100   2.062       .  S
Fe87         O92   2.066       .  S
Fe87         O98   1.963       .  S
Fe88         O91   2.072       .  S
Fe88         O95   2.055       .  S
Fe88         O99   2.076       .  S
Fe88        O104   2.067       .  S
Fe88         O98   1.966       .  S
Fe89        O107   2.064       .  S
Fe89         O94   2.069       .  S
Fe89        O101   2.067       .  S
Fe89         O90   2.076       .  S
Fe89         O98   1.963       .  S
O90          C97   1.274       .  A
O91         C105   1.269       .  A
O92          C97   1.274       .  A
O93          C96   1.266       .  A
O94         C106   1.270       .  A
O95         C108   1.271       .  A
C96         O101   1.266       .  A
C96         C344   1.481       .  S
C97         C281   1.494       .  S
O99         C102   1.270       .  A
O100        C102   1.267       .  A
C102        C293   1.492       .  S
O103        C108   1.270       .  A
O104        C106   1.270       .  A
C105        O107   1.271       .  A
C105        C329   1.493       .  S
C106        C305   1.481       .  S
C108        C368   1.483       .  S
Fe109       O125   2.056       .  S
Fe109       O115   2.073       .  S
Fe109       O122   2.077       .  S
Fe109       O114   2.062       .  S
Fe109       O120   1.969       .  S
Fe110       O113   2.051       .  S
Fe110       O117   2.061       .  S
Fe110       O121   2.060       .  S
Fe110       O126   2.057       .  S
Fe110       O120   1.973       .  S
Fe111       O129   2.078       .  S
Fe111       O116   2.064       .  S
Fe111       O123   2.067       .  S
Fe111       O112   2.078       .  S
Fe111       O120   1.974       .  S
O112        C119   1.271       .  A
O113        C127   1.268       .  A
O114        C119   1.269       .  A
O115        C118   1.270       .  A
O116        C128   1.270       .  A
O117        C130   1.267       .  A
C118        O123   1.271       .  A
C118        C260   1.499       .  S
C119        C317   1.489       .  S
O121        C124   1.267       .  A
O122        C124   1.272       .  A
C124        C356   1.492       .  S
O125        C130   1.267       .  A
O126        C128   1.268       .  A
C127        O129   1.270       .  A
C127        C269   1.492       .  S
C128        C380   1.483       .  S
C130        C248   1.490       .  S
C131        C212   1.491       .  S
C131       C1340   1.411   1_545  A
C131       C2552   1.416       .  A
C132        C200   1.483       .  S
C132       C1339   1.411       .  A
C132       C2549   1.413       .  A
C133        C233   1.492       .  S
C133       C2548   1.415       .  A
C133       C1342   1.420   1_655  A
C134        C224   1.494       .  S
C134        C135   1.419   1_565  A
C134       C1341   1.409   1_455  A
C135        C185   1.482       .  S
C135        C136   1.420       .  A
C136        C173   1.498       .  S
C136       C2547   1.411   1_455  A
C137        C296   1.486       .  S
C137        N138   1.354       .  A
C137        N142   1.361   1_545  A
N138        C139   1.354   1_545  A
C139        C221   1.484       .  S
C139       N1348   1.359       .  A
N140        C141   1.360       .  A
N140       C1347   1.355       .  A
C141        C560   1.478       .  S
C141       N1350   1.363       .  A
N142       C1349   1.363       .  A
C143        C272   1.493       .  S
C143        N144   1.354       .  A
C143       N1356   1.358       .  A
N144       C1353   1.353       .  A
C145        C209   1.480       .  S
C145        N146   1.359       .  A
C145       N1352   1.353   1_545  A
N146        C147   1.362       .  A
C147        C464   1.477       .  S
C147        N148   1.362       .  A
N148       C1351   1.359   1_545  A
C149        C284   1.490       .  S
C149        N150   1.361       .  A
C149        N154   1.361       .  A
N150       C2567   1.360       .  A
C151        C533   1.475       .  S
C151        N152   1.357       .  A
C151       N2566   1.361       .  A
N152       C2569   1.356       .  A
C153        C176   1.487       .  S
C153        N154   1.358       .  A
C153       N2568   1.355       .  A
C155        C485   1.482       .  S
C155        N156   1.358       .  A
C155        N160   1.366       .  A
N156        C157   1.351       .  A
C157        C188   1.471       .  S
C157        N158   1.348       .  A
N158        C159   1.352       .  A
C159        C245   1.491       .  S
C159        N160   1.363       .  A
C161        C257   1.481       .  S
C161        N162   1.356       .  A
C161        N166   1.360   1_455  A
N162        C163   1.354   1_455  A
C163        C236   1.483       .  S
C163       N2580   1.356       .  A
N164        C165   1.360       .  A
N164       C2579   1.356       .  A
C165        C500   1.477       .  S
C165       N2582   1.365       .  A
N166       C2581   1.362       .  A
C167        C569   1.465       .  S
C167        N168   1.353       .  A
C167        N172   1.359       .  A
N168        C169   1.353       .  A
C169        C197   1.475       .  S
C169        N170   1.358       .  A
N170        C171   1.361       .  A
C171        C308   1.483       .  S
C171        N172   1.360       .  A
C173        C178   1.414   1_455  A
C173       C2590   1.402       .  A
C174        C175   1.401       .  A
C174       C2589   1.401       .  A
C174        H179   1.087       .  S
C175        C176   1.417       .  A
C175        C182   1.444       .  S
C176       C2593   1.404       .  A
C177        C178   1.399       .  A
C177       C2592   1.404   1_655  A
C177        H180   1.088       .  S
C178        C181   1.444       .  S
C181        N183   1.157       .  T
C182        N184   1.157       .  T
C185        C186   1.405       .  A
C185        C190   1.408       .  A
C186        C187   1.396       .  A
C186        H191   1.085       .  S
C187        C188   1.410       .  A
C187        C194   1.444       .  S
C188        C189   1.404       .  A
C189        C190   1.392       .  A
C189        H192   1.085       .  S
C190        C193   1.443       .  S
C193        N195   1.157       .  T
C194        N196   1.157       .  T
C197        C198   1.402       .  A
C197        C202   1.415       .  A
C198        C199   1.397       .  A
C198        H203   1.085       .  S
C199        C200   1.409       .  A
C199        C206   1.443       .  S
C200        C201   1.400       .  A
C201        C202   1.399       .  A
C201        H204   1.085       .  S
C202        C205   1.444       .  S
C205        N207   1.157       .  T
C206        N208   1.157       .  T
C209        C210   1.404       .  A
C209       C1422   1.414       .  A
C210        C211   1.402       .  A
C210        H215   1.083       .  S
C211        C212   1.410       .  A
C211        C218   1.443       .  S
C212       C1421   1.400       .  A
C213        C214   1.402       .  A
C213       C1420   1.402       .  A
C213        H216   1.083       .  S
C214       C1417   1.416       .  A
C214        C217   1.444       .  S
C217        N219   1.157       .  T
C218        N220   1.157       .  T
C221        C226   1.413       .  A
C221       C1430   1.406   1_565  A
C222        C223   1.397       .  A
C222       C1429   1.405       .  A
C222        H227   1.085       .  S
C223       C1432   1.409       .  A
C223        C230   1.442       .  S
C224        C225   1.406       .  A
C224       C1431   1.407   1_565  A
C225        C226   1.403       .  A
C225        H228   1.082       .  S
C226        C229   1.444       .  S
C229        N231   1.157       .  T
C230        N232   1.157       .  T
C233        C234   1.403       .  A
C233       C2654   1.409       .  A
C234        C235   1.399       .  A
C234        H239   1.086       .  S
C235        C236   1.414       .  A
C235        C242   1.444       .  S
C236       C2653   1.406       .  A
C237        C238   1.397       .  A
C237       C2652   1.404       .  A
C237        H240   1.085       .  S
C238       C2649   1.409       .  A
C238        C241   1.441       .  S
C241        N243   1.157       .  T
C242        N244   1.157       .  T
C245        C246   1.408       .  A
C245        C250   1.412       .  A
C246        C247   1.395       .  A
C246        H251   1.086       .  S
C247        C248   1.415       .  A
C247        C254   1.446       .  S
C248        C249   1.410       .  A
C249        C250   1.403       .  A
C249        H252   1.086       .  S
C250        C253   1.440       .  S
C253        N255   1.156       .  T
C254        N256   1.158       .  T
C257        C258   1.400       .  A
C257        C262   1.411       .  A
C258        C259   1.403       .  A
C258        H263   1.085       .  S
C259        C260   1.423       .  A
C259        C266   1.444       .  S
C260        C261   1.410       .  A
C261        C262   1.400       .  A
C261        H264   1.085       .  S
C262        C265   1.445       .  S
C265        N267   1.157       .  T
C266        N268   1.157       .  T
C269        C270   1.406       .  A
C269        C274   1.416       .  A
C270        C271   1.395       .  A
C270        H275   1.084       .  S
C271        C272   1.418       .  A
C271        C278   1.446       .  S
C272        C273   1.409       .  A
C273        C274   1.406       .  A
C273        H276   1.084       .  S
C274        C277   1.444       .  S
C277        N279   1.158       .  T
C278        N280   1.158       .  T
C281        C282   1.407       .  A
C281        C286   1.418       .  A
C282        C283   1.398       .  A
C282        H287   1.087       .  S
C283        C284   1.415       .  A
C283        C290   1.446       .  S
C284        C285   1.407       .  A
C285        C286   1.405       .  A
C285        H288   1.087       .  S
C286        C289   1.444       .  S
C289        N291   1.157       .  T
C290        N292   1.158       .  T
C293        C294   1.406       .  A
C293        C298   1.418       .  A
C294        C295   1.402       .  A
C294        H299   1.084       .  S
C295        C296   1.416       .  A
C295        C302   1.446       .  S
C296        C297   1.402       .  A
C297        C298   1.402       .  A
C297        H300   1.084       .  S
C298        C301   1.444       .  S
C301        N303   1.157       .  T
C302        N304   1.157       .  T
C305        C306   1.403       .  A
C305        C310   1.415       .  A
C306        C307   1.404       .  A
C306        H311   1.086       .  S
C307        C308   1.415       .  A
C307        C314   1.442       .  S
C308        C309   1.402       .  A
C309        C310   1.397       .  A
C309        H312   1.086       .  S
C310        C313   1.446       .  S
C313        N315   1.157       .  T
C314        N316   1.157       .  T
C317        C318   1.406       .  A
C317        C322   1.414       .  A
C318        C319   1.401       .  A
C318        H323   1.084       .  S
C319        C320   1.412       .  A
C319        C326   1.441       .  S
C320        C321   1.406       .  A
C321        C322   1.404       .  A
C321        H324   1.084       .  S
C322        C325   1.444       .  S
C325        N327   1.157       .  T
C326        N328   1.156   1_455  T
C329        C330   1.403       .  A
C329        C334   1.421       .  A
C330        C331   1.396       .  A
C330        H335   1.085       .  S
C331        C332   1.419       .  A
C331        C338   1.447       .  S
C332        C333   1.403       .  A
C333        C334   1.405       .  A
C333        H336   1.084       .  S
C334        C337   1.444       .  S
C337        N339   1.157       .  T
C338        N340   1.158       .  T
C341        C342   1.411       .  A
C341        C346   1.426       .  A
C342        C343   1.407       .  A
C342        H347   1.085       .  S
C343        C344   1.411       .  A
C343        C350   1.444       .  S
C344        C345   1.398       .  A
C345        C346   1.394       .  A
C345        H348   1.087       .  S
C346        C349   1.446       .  S
C349        N351   1.158       .  T
C350        N352   1.157       .  T
C353        C354   1.402       .  A
C353        C358   1.414       .  A
C354        C355   1.403       .  A
C354        H359   1.084       .  S
C355        C356   1.420       .  A
C355        C362   1.444       .  S
C356        C357   1.406       .  A
C357        C358   1.400       .  A
C357        H360   1.084       .  S
C358        C361   1.445       .  S
C361        N363   1.157       .  T
C362        N364   1.157       .  T
C365        C366   1.408       .  A
C365        C370   1.425       .  A
C366        C367   1.406       .  A
C366        H371   1.085       .  S
C367        C368   1.415       .  A
C367        C374   1.444       .  S
C368        C369   1.398       .  A
C369        C370   1.390       .  A
C369        H372   1.086       .  S
C370        C373   1.447       .  S
C373        N375   1.158       .  T
C374        N376   1.157       .  T
C377        C378   1.405       .  A
C377        C382   1.411       .  A
C378        C379   1.399       .  A
C378        H383   1.085       .  S
C379        C380   1.415       .  A
C379        C386   1.445       .  S
C380        C381   1.404       .  A
C381        C382   1.399       .  A
C381        H384   1.085       .  S
C382        C385   1.441       .  S
C385       N1595   1.156       .  T
C386        N388   1.157       .  T
N387       C1593   1.156   1_545  T
C389        C390   1.402       .  A
C389        C394   1.408       .  A
C390        C391   1.396       .  A
C390        H395   1.086       .  S
C391        C392   1.410       .  A
C391        C398   1.444       .  S
C392        C393   1.404       .  A
C393        C394   1.398       .  A
C393        H396   1.086       .  S
C394        C397   1.443       .  S
C397        N399   1.157       .  T
C398        N400   1.157       .  T
C401       C2466   1.481       .  S
C401        C402   1.400       .  A
C401       C2822   1.409       .  A
C402        C403   1.396       .  A
C402        H407   1.084       .  S
C403        C404   1.411       .  A
C403        C410   1.444       .  S
C404       C2821   1.403       .  A
C405        C406   1.395       .  A
C405       C2820   1.400       .  A
C405        H408   1.084       .  S
C406       C2817   1.409       .  A
C406        C409   1.443       .  S
C409        N411   1.157       .  T
C410        N412   1.157       .  T
C413        C418   1.407       .  A
C413       C1622   1.404       .  A
C414        C415   1.396       .  A
C414       C1621   1.401       .  A
C414        H419   1.085       .  S
C415       C1624   1.412       .  A
C415        C422   1.443       .  S
C416        C417   1.407       .  A
C416       C1623   1.414       .  A
C417        C418   1.397       .  A
C417        H420   1.085       .  S
C418        C421   1.443       .  S
C421        N423   1.157       .  T
C422        N424   1.157       .  T
C425        C426   1.402       .  A
C425       C2846   1.407       .  A
C426        C427   1.400       .  A
C426        H431   1.085       .  S
C427        C428   1.413       .  A
C427        C434   1.444       .  S
C428       C2845   1.403       .  A
C429        C430   1.403   1_455  A
C429       C2844   1.405   1_455  A
C429        H432   1.083       .  S
C430       C2841   1.410       .  A
C430        C433   1.443   1_655  S
C433        N435   1.157       .  T
C434        N436   1.157       .  T
C437        C438   1.402       .  A
C437        C442   1.413       .  A
C438        C439   1.397       .  A
C438        H443   1.076       .  S
C439        C440   1.408       .  A
C439        C446   1.444       .  S
C440        C441   1.401       .  A
C441        C442   1.400       .  A
C441        H444   1.082       .  S
C442        C445   1.444       .  S
C445        N447   1.157       .  T
C446        N448   1.157       .  T
C449        C454   1.408       .  A
C449       C1658   1.399       .  A
C450        C451   1.401       .  A
C450       C1657   1.402       .  A
C450        H455   1.084       .  S
C451       C1660   1.412       .  A
C451        C458   1.443       .  S
C452        C453   1.405       .  A
C452       C1659   1.414       .  A
C453        C454   1.400       .  A
C453        H456   1.083       .  S
C454        C457   1.443       .  S
C457        N459   1.157       .  T
C458        N460   1.157       .  T
C461        C462   1.406       .  A
C461        C466   1.415       .  A
C462        C463   1.401       .  A
C462        H467   1.085       .  S
C463        C464   1.410       .  A
C463        C470   1.445       .  S
C464        C465   1.403       .  A
C465        C466   1.402       .  A
C465        H468   1.085       .  S
C466        C469   1.445       .  S
C469        N471   1.157       .  T
C470       N1680   1.157   1_545  T
N472       C1678   1.157       .  T
C473        C474   1.406       .  A
C473        C478   1.413       .  A
C474        C475   1.406       .  A
C474        H479   1.083       .  S
C475        C476   1.418       .  A
C475        C482   1.444       .  S
C476        C477   1.405       .  A
C477        C478   1.397       .  A
C477        H480   1.085       .  S
C478        C481   1.442       .  S
C481        N483   1.156       .  T
C482        N484   1.157       .  T
C485        C486   1.406       .  A
C485        C490   1.409       .  A
C486        C487   1.398       .  A
C486        H491   1.081       .  S
C487        C488   1.415       .  A
C487        C494   1.445       .  S
C488        C489   1.410       .  A
C489        C490   1.400       .  A
C489        H492   1.084       .  S
C490        C493   1.443       .  S
C493        N495   1.157       .  T
C494        N496   1.158       .  T
C497        C498   1.409       .  A
C497        C502   1.414       .  A
C498        C499   1.402       .  A
C498        H503   1.084       .  S
C499        C500   1.408       .  A
C499        C506   1.444       .  S
C500        C501   1.404       .  A
C501        C502   1.402       .  A
C501        H504   1.084       .  S
C502        C505   1.443       .  S
C505        N507   1.157       .  T
C506       N2924   1.157       .  T
N508       C2922   1.157   1_455  T
C509        C510   1.406       .  A
C509        C514   1.414       .  A
C510        C511   1.397       .  A
C510        H515   1.087       .  S
C511        C512   1.414       .  A
C511        C518   1.445       .  S
C512        C513   1.407       .  A
C513        C514   1.402       .  A
C513        H516   1.087       .  S
C514        C517   1.441       .  S
C517        N519   1.156       .  T
C518        N520   1.157       .  T
C521        C522   1.407       .  A
C521        C526   1.413       .  A
C522        C523   1.399       .  A
C522        H527   1.087       .  S
C523        C524   1.415       .  A
C523        C530   1.445       .  S
C524        C525   1.411       .  A
C525        C526   1.408       .  A
C525        H528   1.086       .  S
C526        C529   1.443       .  S
C529        N531   1.157       .  T
C530        N532   1.158       .  T
C533        C534   1.402       .  A
C533        C538   1.409       .  A
C534        C535   1.400       .  A
C534        H539   1.080       .  S
C535        C536   1.413       .  A
C535        C542   1.445       .  S
C536        C537   1.408       .  A
C537        C538   1.401       .  A
C537        H540   1.085       .  S
C538        C541   1.445       .  S
C541       N2959   1.157   1_455  T
C542        N544   1.157       .  T
N543       C2957   1.157       .  T
C545        C546   1.407       .  A
C545        C550   1.410       .  A
C546        C547   1.410       .  A
C546        H551   1.086       .  S
C547        C548   1.415       .  A
C547        C554   1.444       .  S
C548        C549   1.402       .  A
C549        C550   1.391       .  A
C549        H552   1.086       .  S
C550        C553   1.445       .  S
C553        N555   1.157       .  T
C554        N556   1.158       .  T
C557        C558   1.410       .  A
C557        C562   1.414       .  A
C558        C559   1.404       .  A
C558        H563   1.083       .  S
C559        C560   1.409       .  A
C559        C566   1.444       .  S
C560        C561   1.402       .  A
C561        C562   1.399       .  A
C561        H564   1.076       .  S
C562        C565   1.445       .  S
C565        N567   1.157       .  T
C566        N568   1.157       .  T
C569        C570   1.403       .  A
C569        C574   1.405       .  A
C570        C571   1.400       .  A
C570        H575   1.086       .  S
C571        C572   1.411       .  A
C571        C578   1.444       .  S
C572        C573   1.407       .  A
C573        C574   1.397       .  A
C573        H576   1.086       .  S
C574        C577   1.445       .  S
C577        N579   1.157       .  T
C578        N580   1.157       .  T
C581        C582   1.400       .  A
C581        C586   1.413       .  A
C582        C583   1.393       .  A
C582        H587   1.084       .  S
C583        C584   1.414       .  A
C583        C590   1.446       .  S
C584        C585   1.407       .  A
C585        C586   1.408       .  A
C585        H588   1.085       .  S
C586        C589   1.441       .  S
C589        N591   1.156       .  T
C590       N1196   1.157   1_554  T
N592       C1194   1.158       .  T
C593        C594   1.408       .  A
C593        C598   1.416       .  A
C594        C595   1.409       .  A
C594        H599   1.084       .  S
C595        C596   1.417       .  A
C595        C602   1.444       .  S
C596        C597   1.403       .  A
C597        C598   1.394       .  A
C597        H600   1.085       .  S
C598        C601   1.443       .  S
C601        N603   1.157       .  T
C602        N604   1.158       .  T
Fe605       O621   2.076       .  S
Fe605       O611   2.075       .  S
Fe606       O617   2.053       .  S
Fe606       O622   2.080       .  S
Fe606       O616   1.966       .  S
Fe607       O612   2.057       .  S
Fe607       O608   2.074       .  S
Fe607       O616   1.963       .  S
O608        C615   1.269       .  A
O609        C623   1.271       .  A
O610        C615   1.269       .  A
O611        C614   1.274       .  A
O612        C624   1.270       .  A
O613        C626   1.267       .  A
C614        O619   1.273       .  A
C614       C1200   1.490       .  S
C615       C1176   1.491       .  S
O617        C620   1.267       .  A
O618        C620   1.271       .  A
C620       C1161   1.495       .  S
O621        C626   1.270       .  A
O622        C624   1.273       .  A
C623        O625   1.271       .  A
C623       C1152   1.487       .  S
C624       C1140   1.495       .  S
C626       C1188   1.484       .  S
Fe627       O643   2.062   1_554  S
Fe627       O633   2.068   1_554  S
Fe628       O639   2.070       .  S
Fe628       O644   2.076       .  S
Fe628       O638   1.966       .  S
Fe629       O634   2.067       .  S
Fe629       O630   2.066       .  S
Fe629       O638   1.964       .  S
O630        C637   1.270       .  A
O631        C645   1.268       .  A
O632        C637   1.270       .  A
O633        C636   1.271       .  A
O634        C646   1.270       .  A
O635        C648   1.271       .  A
C636        O641   1.270       .  A
C636       C1101   1.478       .  S
C637       C1128   1.484       .  S
O639        C642   1.268       .  A
O640        C642   1.269       .  A
C642       C1080   1.493       .  S
O643        C648   1.268       .  A
O644        C646   1.273       .  A
C645        O647   1.269       .  A
C645       C1092   1.487       .  S
C646       C1116   1.490       .  S
C648       C1065   1.495       .  S
C649       C1053   1.492       .  S
C649        C650   1.408       .  A
C649       C4278   1.408       .  A
C650       C1044   1.484       .  S
C650        C651   1.414       .  A
C651       C1029   1.485       .  S
C651       C3068   1.416       .  A
C652       C1017   1.486       .  S
C652       C3067   1.411   1_455  A
C652       C1861   1.412       .  A
C653        C993   1.486       .  S
C653       C1860   1.413   1_545  A
C653        C654   1.414       .  A
C654       C3421   1.490       .  S
C654       C4273   1.413   1_445  A
C655        C981   1.490       .  S
C655       N1864   1.366       .  A
C655        N660   1.364       .  A
N656       C1863   1.362       .  A
N656        C657   1.362   1_565  A
C657       C1077   1.493       .  S
C657        N658   1.356       .  A
N658       C1867   1.353   1_545  A
C659       C1056   1.485       .  S
C659       N1866   1.352       .  A
C659        N660   1.358       .  A
C661        C969   1.494       .  S
C661        N662   1.352       .  A
C661       N1874   1.366       .  A
N662       C1871   1.347   1_545  A
C663       C1020   1.479       .  S
C663       N1870   1.349       .  A
C663        N664   1.352       .  A
N664        C665   1.362       .  A
C665       C1185   1.484       .  S
C665        N666   1.367       .  A
N666       C1869   1.366       .  A
C667       C1113   1.487       .  S
C667        N668   1.356       .  A
C667        N672   1.362       .  A
N668        C669   1.353       .  A
C669        C996   1.475       .  S
C669        N670   1.354       .  A
N670        C671   1.357       .  A
C671        C957   1.486       .  S
C671        N672   1.364       .  A
C673        C945   1.502       .  S
C673        N674   1.368       .  A
C673        N678   1.354       .  A
N674       C3091   1.369       .  A
C675       C1149   1.488       .  S
C675       N3090   1.367       .  A
C675        N676   1.363       .  A
N676       C3093   1.355       .  A
C677       C1008   1.475       .  S
C677       N3092   1.356       .  A
C677        N678   1.349       .  A
C679       C1197   1.494       .  S
C679        N680   1.364       .  A
C679        N684   1.372       .  A
N680        C681   1.354       .  A
C681       C1041   1.476       .  S
C681        N682   1.347       .  A
N682        C683   1.350       .  A
C683        C936   1.501       .  S
C683        N684   1.369       .  A
C685        C924   1.476       .  S
C685        N686   1.361       .  A
C685       N3106   1.362   1_455  A
N686       C3103   1.359   1_455  A
C687       C1032   1.476       .  S
C687       N3102   1.358       .  A
C687        N688   1.352       .  A
N688        C689   1.355       .  A
C689       C1125   1.485       .  S
C689        N690   1.362       .  A
N690       C3101   1.362       .  A
Fe691       O707   2.077       .  S
Fe691       O697   2.048       .  S
Fe691       O704   2.065       .  S
Fe691       O696   2.079       .  S
Fe691       O702   1.969       .  S
Fe692       O695   2.084       .  S
Fe692       O699   2.054       .  S
Fe692       O703   2.085       .  S
Fe692       O708   2.062       .  S
Fe692       O702   1.970       .  S
Fe693       O711   2.064       .  S
Fe693       O698   2.082       .  S
Fe693       O705   2.083       .  S
Fe693       O694   2.077       .  S
Fe693       O702   1.969       .  S
O694        C701   1.272       .  A
O695        C709   1.270       .  A
O696        C701   1.275       .  A
O697        C700   1.266       .  A
O698        C710   1.274       .  A
O699        C712   1.270       .  A
C700        O705   1.270       .  A
C700        C948   1.489       .  S
C701        C885   1.505       .  S
O703        C706   1.273       .  A
O704        C706   1.266       .  A
C706        C897   1.503       .  S
O707        C712   1.272       .  A
O708        C710   1.270       .  A
C709        O711   1.271       .  A
C709        C933   1.499       .  S
C710        C909   1.484       .  S
C712        C972   1.485       .  S
Fe713       O729   2.062       .  S
Fe713       O719   2.061       .  S
Fe713       O726   2.070       .  S
Fe713       O718   2.068       .  S
Fe713       O724   1.967       .  S
Fe714       O717   2.052       .  S
Fe714       O721   2.075       .  S
Fe714       O725   2.066       .  S
Fe714       O730   2.069       .  S
Fe714       O724   1.963       .  S
Fe715       O733   2.067       .  S
Fe715       O720   2.077       .  S
Fe715       O727   2.078       .  S
Fe715       O716   2.063       .  S
Fe715       O724   1.971       .  S
O716        C723   1.269       .  A
O717        C731   1.268       .  A
O718        C723   1.269       .  A
O719        C722   1.269       .  A
O720        C732   1.273       .  A
O721        C734   1.271       .  A
C722        O727   1.274       .  A
C722        C864   1.494       .  S
C723        C921   1.485       .  S
O725        C728   1.268       .  A
O726        C728   1.272       .  A
C728        C960   1.497       .  S
O729        C734   1.267       .  A
O730        C732   1.271       .  A
C731        O733   1.268       .  A
C731        C873   1.488       .  S
C732        C984   1.498       .  S
C734        C852   1.494       .  S
C735        C816   1.499       .  S
C735       C1944   1.408   1_545  A
C735       C3156   1.414       .  A
C736        C804   1.488       .  S
C736       C1943   1.406       .  A
C736       C3153   1.409       .  A
C737        C837   1.486       .  S
C737       C3152   1.414       .  A
C737       C1946   1.416   1_655  A
C738        C828   1.494       .  S
C738       C1945   1.420   1_455  A
C738        C739   1.421   1_565  A
C739        C789   1.495       .  S
C739        C740   1.419       .  A
C740        C777   1.496       .  S
C740       C3151   1.415   1_455  A
C741        C900   1.497       .  S
C741        N742   1.356       .  A
C741        N746   1.366   1_545  A
N742        C743   1.354   1_545  A
C743        C825   1.484       .  S
C743       N1952   1.357       .  A
N744       C1951   1.356       .  A
N744        C745   1.361       .  A
C745       C1164   1.494       .  S
C745       N1954   1.361       .  A
N746       C1953   1.367       .  A
C747        C876   1.481       .  S
C747        N748   1.353       .  A
C747       N1960   1.359       .  A
N748       C1957   1.351       .  A
C749        C813   1.486       .  S
C749       N1956   1.355   1_545  A
C749        N750   1.360       .  A
N750        C751   1.366       .  A
C751       C1068   1.492       .  S
C751        N752   1.362       .  A
N752       C1955   1.358   1_545  A
C753        C888   1.501       .  S
C753        N754   1.369       .  A
C753        N758   1.357       .  A
N754       C3171   1.370       .  A
C755       C1137   1.487       .  S
C755       N3170   1.362       .  A
C755        N756   1.358       .  A
N756       C3173   1.354       .  A
C757        C780   1.479       .  S
C757       N3172   1.349       .  A
C757        N758   1.353       .  A
C759       C1089   1.482       .  S
C759        N760   1.361       .  A
C759        N764   1.361       .  A
N760        C761   1.359       .  A
C761        C792   1.482       .  S
C761        N762   1.355       .  A
N762        C763   1.356       .  A
C763        C849   1.491       .  S
C763        N764   1.359       .  A
C765        C861   1.488       .  S
C765        N766   1.353       .  A
C765        N770   1.362   1_455  A
N766        C767   1.351   1_455  A
C767        C840   1.475       .  S
C767       N3184   1.355       .  A
N768       C3183   1.354       .  A
N768        C769   1.357       .  A
C769       C1104   1.469       .  S
C769       N3186   1.361       .  A
N770       C3185   1.364       .  A
C771       C1173   1.480       .  S
C771        N772   1.357       .  A
C771        N776   1.365       .  A
N772        C773   1.355       .  A
C773        C801   1.478       .  S
C773        N774   1.356       .  A
N774        C775   1.359       .  A
C775        C912   1.493       .  S
C775        N776   1.364       .  A
C777       C3194   1.402       .  A
C777        C782   1.412   1_455  A
C778       C3193   1.402       .  A
C778        C779   1.399       .  A
C778        H783   1.081       .  S
C779        C780   1.417       .  A
C779        C786   1.445       .  S
C780       C3197   1.404       .  A
C781       C3196   1.406   1_655  A
C781        C782   1.399       .  A
C781        H784   1.087       .  S
C782        C785   1.444       .  S
C785        N787   1.157       .  T
C786        N788   1.158       .  T
C789        C790   1.405       .  A
C789        C794   1.411       .  A
C790        C791   1.401       .  A
C790        H795   1.083       .  S
C791        C792   1.412       .  A
C791        C798   1.443       .  S
C792        C793   1.405       .  A
C793        C794   1.399       .  A
C793        H796   1.083       .  S
C794        C797   1.443       .  S
C797        N799   1.157       .  T
C798        N800   1.157       .  T
C801        C802   1.403       .  A
C801        C806   1.414       .  A
C802        C803   1.398       .  A
C802        H807   1.086       .  S
C803        C804   1.409       .  A
C803        C810   1.442       .  S
C804        C805   1.402       .  A
C805        C806   1.401       .  A
C805        H808   1.085       .  S
C806        C809   1.443       .  S
C809        N811   1.157       .  T
C810        N812   1.157       .  T
C813        C814   1.405       .  A
C813       C2026   1.414       .  A
C814        C815   1.407       .  A
C814        H819   1.083       .  S
C815        C816   1.413       .  A
C815        C822   1.443       .  S
C816       C2025   1.401   1_545  A
C817       C2024   1.399       .  A
C817        C818   1.396       .  A
C817        H820   1.083       .  S
C818       C2021   1.413       .  A
C818        C821   1.444       .  S
C821        N823   1.157       .  T
C822        N824   1.157       .  T
C825       C2034   1.405   1_565  A
C825        C830   1.414       .  A
C826       C2033   1.404       .  A
C826        C827   1.399       .  A
C826        H831   1.085       .  S
C827       C2036   1.412       .  A
C827        C834   1.442       .  S
C828       C2035   1.410   1_565  A
C828        C829   1.404       .  A
C829        C830   1.401       .  A
C829        H832   1.085       .  S
C830        C833   1.443       .  S
C833        N835   1.157       .  T
C834        N836   1.157       .  T
C837        C838   1.403       .  A
C837       C3258   1.409   1_655  A
C838        C839   1.397       .  A
C838        H843   1.084       .  S
C839        C840   1.412       .  A
C839        C846   1.444       .  S
C840       C3257   1.404       .  A
C841       C3256   1.403       .  A
C841        C842   1.395       .  A
C841        H844   1.084       .  S
C842       C3253   1.408       .  A
C842        C845   1.441       .  S
C845        N847   1.157       .  T
C846        N848   1.157       .  T
C849        C850   1.402       .  A
C849        C854   1.413       .  A
C850        C851   1.397       .  A
C850        H855   1.084       .  S
C851        C852   1.419       .  A
C851        C858   1.442       .  S
C852        C853   1.406       .  A
C853        C854   1.403       .  A
C853        H856   1.084       .  S
C854        C857   1.435       .  S
C857        N859   1.154       .  T
C858        N860   1.156       .  T
C861        C862   1.402       .  A
C861        C866   1.418       .  A
C862        C863   1.402       .  A
C862        H867   1.086       .  S
C863        C864   1.420       .  A
C863        C870   1.442       .  S
C864        C865   1.406       .  A
C865        C866   1.399       .  A
C865        H868   1.086       .  S
C866        C869   1.446       .  S
C869        N871   1.158       .  T
C870        N872   1.157       .  T
C873        C874   1.405       .  A
C873        C878   1.418       .  A
C874        C875   1.392       .  A
C874        H879   1.085       .  S
C875        C876   1.414       .  A
C875        C882   1.447       .  S
C876        C877   1.405       .  A
C877        C878   1.404       .  A
C877        H880   1.084       .  S
C878        C881   1.444       .  S
C881        N883   1.158       .  T
C882        N884   1.158       .  T
C885        C886   1.406       .  A
C885        C890   1.422       .  A
C886        C887   1.400       .  A
C886        H891   1.084       .  S
C887        C888   1.422       .  A
C887        C894   1.447       .  S
C888        C889   1.407       .  A
C889        C890   1.410       .  A
C889        H892   1.084       .  S
C890        C893   1.443       .  S
C893        N895   1.157       .  T
C894        N896   1.158       .  T
C897        C898   1.406       .  A
C897        C902   1.423       .  A
C898        C899   1.401       .  A
C898        H903   1.084       .  S
C899        C900   1.419       .  A
C899        C906   1.446       .  S
C900        C901   1.405       .  A
C901        C902   1.408       .  A
C901        H904   1.084       .  S
C902        C905   1.444       .  S
C905        N907   1.157       .  T
C906        N908   1.158       .  T
C909        C910   1.404       .  A
C909        C914   1.412       .  A
C910        C911   1.406       .  A
C910        H915   1.085       .  S
C911        C912   1.417       .  A
C911        C918   1.440       .  S
C912        C913   1.407       .  A
C913        C914   1.399       .  A
C913        H916   1.085       .  S
C914        C917   1.446       .  S
C917        N919   1.157       .  T
C918        N920   1.157       .  T
C921        C922   1.407       .  A
C921        C926   1.415       .  A
C922        C923   1.399       .  A
C922        H927   1.085       .  S
C923        C924   1.409       .  A
C923        C930   1.445       .  S
C924        C925   1.403       .  A
C925        C926   1.403       .  A
C925        H928   1.085       .  S
C926        C929   1.445       .  S
C929        N931   1.158       .  T
C930        N932   1.157   1_455  T
C933        C934   1.403       .  A
C933        C938   1.420       .  A
C934        C935   1.397       .  A
C934        H939   1.085       .  S
C935        C936   1.425       .  A
C935        C942   1.447       .  S
C936        C937   1.407       .  A
C937        C938   1.410       .  A
C937        H940   1.084       .  S
C938        C941   1.443       .  S
C941        N943   1.157       .  T
C942        N944   1.158       .  T
C945        C946   1.411       .  A
C945        C950   1.426       .  A
C946        C947   1.409       .  A
C946        H951   1.084       .  S
C947        C948   1.412       .  A
C947        C954   1.443       .  S
C948        C949   1.401       .  A
C949        C950   1.395       .  A
C949        H952   1.086       .  S
C950        C953   1.447       .  S
C953        N955   1.158       .  T
C954        N956   1.157       .  T
C957        C958   1.401       .  A
C957        C962   1.416       .  A
C958        C959   1.401       .  A
C958        H963   1.086       .  S
C959        C960   1.423       .  A
C959        C966   1.444       .  S
C960        C961   1.407       .  A
C961        C962   1.400       .  A
C961        H964   1.085       .  S
C962        C965   1.446       .  S
C965        N967   1.158       .  T
C966        N968   1.157       .  T
C969        C970   1.408       .  A
C969        C974   1.425       .  A
C970        C971   1.405       .  A
C970        H975   1.084       .  S
C971        C972   1.415       .  A
C971        C978   1.444       .  S
C972        C973   1.400       .  A
C973        C974   1.393       .  A
C973        H976   1.086       .  S
C974        C977   1.447       .  S
C977        N979   1.158       .  T
C978        N980   1.157       .  T
C981        C982   1.405       .  A
C981        C986   1.412       .  A
C982        C983   1.403       .  A
C982        H987   1.081       .  S
C983        C984   1.418       .  A
C983        C990   1.444       .  S
C984        C985   1.410       .  A
C985        C986   1.403       .  A
C985        H988   1.083       .  S
C986        C989   1.443       .  S
C989       N2199   1.157       .  T
C990        N992   1.157       .  T
N991       C2197   1.157   1_545  T
C993        C994   1.402       .  A
C993        C998   1.409       .  A
C994        C995   1.396       .  A
C994        H999   1.085       .  S
C995        C996   1.411       .  A
C995       C1002   1.444       .  S
C996        C997   1.404       .  A
C997        C998   1.397       .  A
C997       H1000   1.085       .  S
C998       C1001   1.442       .  S
C1001      N1003   1.157       .  T
C1002      N1004   1.157       .  T
C1005      C3070   1.486       .  S
C1005      C1006   1.400       .  A
C1005      C3426   1.411       .  A
C1006      C1007   1.399       .  A
C1006      H1011   1.085       .  S
C1007      C1008   1.413       .  A
C1007      C1014   1.444       .  S
C1008      C3425   1.401       .  A
C1009      C3424   1.402       .  A
C1009      C1010   1.401       .  A
C1009      H1012   1.089       .  S
C1010      C3421   1.412       .  A
C1010      C1013   1.443       .  S
C1013      N1015   1.157       .  T
C1014      N1016   1.157       .  T
C1017      C2226   1.403       .  A
C1017      C1022   1.408       .  A
C1018      C2225   1.403       .  A
C1018      C1019   1.398       .  A
C1018      H1023   1.085       .  S
C1019      C2228   1.411       .  A
C1019      C1026   1.444       .  S
C1020      C2227   1.413       .  A
C1020      C1021   1.405       .  A
C1021      C1022   1.394       .  A
C1021      H1024   1.085       .  S
C1022      C1025   1.443       .  S
C1025      N1027   1.157       .  T
C1026      N1028   1.157       .  T
C1029      C1030   1.400       .  A
C1029      C3450   1.411       .  A
C1030      C1031   1.399       .  A
C1030      H1035   1.083       .  S
C1031      C1032   1.414       .  A
C1031      C1038   1.444       .  S
C1032      C3449   1.402       .  A
C1033      C3448   1.402   1_455  A
C1033      C1034   1.399   1_455  A
C1033      H1036   1.084       .  S
C1034      C3445   1.409       .  A
C1034      C1037   1.443   1_655  S
C1037      N1039   1.157       .  T
C1038      N1040   1.157       .  T
C1041      C1042   1.403       .  A
C1041      C1046   1.414       .  A
C1042      C1043   1.403       .  A
C1042      H1047   1.085       .  S
C1043      C1044   1.412       .  A
C1043      C1050   1.444       .  S
C1044      C1045   1.397       .  A
C1045      C1046   1.396       .  A
C1045      H1048   1.085       .  S
C1046      C1049   1.445       .  S
C1049      N1051   1.157       .  T
C1050      N1052   1.157       .  T
C1053      C2262   1.399       .  A
C1053      C1058   1.411       .  A
C1054      C2261   1.401   1_545  A
C1054      C1055   1.398       .  A
C1054      H1059   1.083       .  S
C1055      C2264   1.413   1_545  A
C1055      C1062   1.444       .  S
C1056      C2263   1.416       .  A
C1056      C1057   1.405       .  A
C1057      C1058   1.404       .  A
C1057      H1060   1.084       .  S
C1058      C1061   1.444       .  S
C1061      N1063   1.157       .  T
C1062      N1064   1.157       .  T
C1065      C1066   1.407       .  A
C1065      C1070   1.417       .  A
C1066      C1067   1.403       .  A
C1066      H1071   1.084       .  S
C1067      C1068   1.417       .  A
C1067      C1074   1.444       .  S
C1068      C1069   1.405       .  A
C1069      C1070   1.402       .  A
C1069      H1072   1.085       .  S
C1070      C1073   1.445       .  S
C1073      N1075   1.157       .  T
C1074      N2284   1.157   1_545  T
N1076      C2282   1.157       .  T
C1077      C1078   1.408       .  A
C1077      C1082   1.419       .  A
C1078      C1079   1.405       .  A
C1078      H1083   1.086       .  S
C1079      C1080   1.417       .  A
C1079      C1086   1.443       .  S
C1080      C1081   1.404       .  A
C1081      C1082   1.395       .  A
C1081      H1084   1.086       .  S
C1082      C1085   1.445       .  S
C1085      N1087   1.157       .  T
C1086      N1088   1.157       .  T
C1089      C1090   1.405       .  A
C1089      C1094   1.411       .  A
C1090      C1091   1.404       .  A
C1090      H1095   1.085       .  S
C1091      C1092   1.414       .  A
C1091      C1098   1.445       .  S
C1092      C1093   1.406       .  A
C1093      C1094   1.401       .  A
C1093      H1096   1.084       .  S
C1094      C1097   1.444       .  S
C1097      N1099   1.157       .  T
C1098      N1100   1.158       .  T
C1101      C1102   1.405       .  A
C1101      C1106   1.413       .  A
C1102      C1103   1.398       .  A
C1102      H1107   1.086       .  S
C1103      C1104   1.409       .  A
C1103      C1110   1.445       .  S
C1104      C1105   1.402       .  A
C1105      C1106   1.399       .  A
C1105      H1108   1.086       .  S
C1106      C1109   1.443       .  S
C1109      N1111   1.157       .  T
C1110      N3528   1.157       .  T
N1112      C3526   1.157   1_455  T
C1113      C1114   1.403       .  A
C1113      C1118   1.413       .  A
C1114      C1115   1.395       .  A
C1114      H1119   1.082       .  S
C1115      C1116   1.413       .  A
C1115      C1122   1.442       .  S
C1116      C1117   1.410       .  A
C1117      C1118   1.407       .  A
C1117      H1120   1.084       .  S
C1118      C1121   1.442       .  S
C1121      N1123   1.157       .  T
C1122      N1124   1.156       .  T
C1125      C1126   1.405       .  A
C1125      C1130   1.412       .  A
C1126      C1127   1.396       .  A
C1126      H1131   1.084       .  S
C1127      C1128   1.415       .  A
C1127      C1134   1.447       .  S
C1128      C1129   1.407       .  A
C1129      C1130   1.402       .  A
C1129      H1132   1.085       .  S
C1130      C1133   1.441       .  S
C1133      N1135   1.156       .  T
C1134      N1136   1.158       .  T
C1137      C1138   1.403       .  A
C1137      C1142   1.413       .  A
C1138      C1139   1.397       .  A
C1138      H1143   1.085       .  S
C1139      C1140   1.419       .  A
C1139      C1146   1.446       .  S
C1140      C1141   1.411       .  A
C1141      C1142   1.404       .  A
C1141      H1144   1.085       .  S
C1142      C1145   1.444       .  S
C1145      N3563   1.157   1_455  T
C1146      N1148   1.158       .  T
N1147      C3561   1.157       .  T
C1149      C1150   1.409       .  A
C1149      C1154   1.412       .  A
C1150      C1151   1.411       .  A
C1150      H1155   1.084       .  S
C1151      C1152   1.415       .  A
C1151      C1158   1.444       .  S
C1152      C1153   1.403       .  A
C1153      C1154   1.393       .  A
C1153      H1156   1.086       .  S
C1154      C1157   1.444       .  S
C1157      N1159   1.157       .  T
C1158      N1160   1.158       .  T
C1161      C1162   1.409       .  A
C1161      C1166   1.418       .  A
C1162      C1163   1.403       .  A
C1162      H1167   1.085       .  S
C1163      C1164   1.416       .  A
C1163      C1170   1.443       .  S
C1164      C1165   1.404       .  A
C1165      C1166   1.396       .  A
C1165      H1168   1.083       .  S
C1166      C1169   1.446       .  S
C1169      N1171   1.158       .  T
C1170      N1172   1.157       .  T
C1173      C1174   1.405       .  A
C1173      C1178   1.408       .  A
C1174      C1175   1.404       .  A
C1174      H1179   1.085       .  S
C1175      C1176   1.415       .  A
C1175      C1182   1.445       .  S
C1176      C1177   1.408       .  A
C1177      C1178   1.403       .  A
C1177      H1180   1.084       .  S
C1178      C1181   1.443       .  S
C1181      N1183   1.157       .  T
C1182      N1184   1.158       .  T
C1185      C1186   1.401       .  A
C1185      C1190   1.414       .  A
C1186      C1187   1.393       .  A
C1186      H1191   1.084       .  S
C1187      C1188   1.416       .  A
C1187      C1194   1.447       .  S
C1188      C1189   1.406       .  A
C1189      C1190   1.409       .  A
C1189      H1192   1.084       .  S
C1190      C1193   1.441       .  S
C1193      N1195   1.157       .  T
C1197      C1198   1.406       .  A
C1197      C1202   1.417       .  A
C1198      C1199   1.409       .  A
C1198      H1203   1.084       .  S
C1199      C1200   1.418       .  A
C1199      C1206   1.445       .  S
C1200      C1201   1.402       .  A
C1201      C1202   1.398       .  A
C1201      H1204   1.085       .  S
C1202      C1205   1.444       .  S
C1205      N1207   1.157       .  T
C1206      N1208   1.158       .  T
Fe1209     O1225   2.078   1_556  S
Fe1209     O1215   2.073   1_556  S
Fe1209     O1826   2.072       .  S
Fe1209     O1818   2.079       .  S
Fe1209     O1824   1.974       .  S
Fe1210     O1817   2.081       .  S
Fe1210     O1821   2.068       .  S
Fe1210     O1221   2.070       .  S
Fe1210     O1226   2.079       .  S
Fe1210     O1220   1.964       .  S
Fe1211     O1833   2.068       .  S
Fe1211     O1216   2.057       .  S
Fe1211     O1827   2.067       .  S
Fe1211     O1212   2.080       .  S
Fe1211     O1220   1.967       .  S
O1212      C1219   1.269       .  A
O1213     Fe1814   2.088   1_554  S
O1213      C1227   1.271       .  A
O1214     Fe1813   2.054       .  S
O1214      C1219   1.265       .  A
O1215      C1218   1.273       .  A
O1216      C1228   1.271       .  A
O1217     Fe1814   2.052   1_554  S
O1217      C1230   1.269       .  A
C1218      O1223   1.272       .  A
C1218      C1804   1.489       .  S
C1219      C1780   1.484       .  S
O1220     Fe1813   1.967       .  S
O1221      C1224   1.271       .  A
O1222     Fe1813   2.069       .  S
O1222      C1224   1.269       .  A
O1223     Fe1815   2.072   1_554  S
C1224      C1765   1.495       .  S
O1225      C1230   1.272       .  A
O1226      C1228   1.274       .  A
C1227      O1229   1.267       .  A
C1227      C1756   1.493       .  S
C1228      C1744   1.496       .  S
O1229     Fe1815   2.064   1_554  S
C1230      C1792   1.489       .  S
Fe1231     O1247   2.056       .  S
Fe1231     O1237   2.077       .  S
Fe1231     O1848   2.068       .  S
Fe1231     O1840   2.063       .  S
Fe1231     O1846   1.973       .  S
Fe1232     O1839   2.070   1_554  S
Fe1232     O1843   2.066   1_554  S
Fe1232     O1243   2.072       .  S
Fe1232     O1248   2.061       .  S
Fe1232     O1242   1.981       .  S
Fe1233     O1855   2.071   1_554  S
Fe1233     O1238   2.071       .  S
Fe1233     O1849   2.063   1_554  S
Fe1233     O1234   2.055       .  S
Fe1233     O1242   1.974       .  S
O1234      C1241   1.272       .  A
O1235     Fe1836   2.066       .  S
O1235      C1249   1.269       .  A
O1236     Fe1835   2.068       .  S
O1236      C1241   1.267       .  A
O1237      C1240   1.271       .  A
O1238      C1250   1.269       .  A
O1239     Fe1836   2.078       .  S
O1239      C1252   1.273       .  A
C1240      O1245   1.272       .  A
C1240      C1705   1.493       .  S
C1241      C1732   1.494       .  S
O1242     Fe1835   1.984       .  S
O1243      C1246   1.268       .  A
O1244     Fe1835   2.055       .  S
O1244      C1246   1.269       .  A
O1245     Fe1837   2.078       .  S
C1246      C1684   1.494       .  S
O1247      C1252   1.269       .  A
O1248      C1250   1.269       .  A
C1249      O1251   1.273       .  A
C1249      C1696   1.499       .  S
C1250      C1720   1.491       .  S
O1251     Fe1837   2.094       .  S
C1252      C1669   1.487       .  S
C1253      C1657   1.488       .  S
C1253      C1254   1.407   1_545  A
C1253      C2466   1.408       .  A
C1254      C1648   1.479       .  S
C1254      C1255   1.408       .  A
C1255      C1633   1.481       .  S
C1255      C3672   1.412       .  A
C1256      C1621   1.483       .  S
C1256      C3671   1.412   1_455  A
C1257      C1597   1.489       .  S
C1257      C1258   1.414       .  A
C1258      C4025   1.493       .  S
C1258      C2461   1.409   1_455  A
C1259      C1585   1.483       .  S
C1259      N1264   1.358       .  A
N1260      C1261   1.362       .  A
C1261      C1681   1.490       .  S
C1261      N1262   1.355       .  A
C1263      C1660   1.478       .  S
C1263      N1264   1.355   1_545  A
C1265      C1573   1.496       .  S
C1265      N1266   1.353       .  A
C1267      C1624   1.474       .  S
C1267      N1268   1.349       .  A
N1268      C1269   1.362       .  A
C1269      C1789   1.490       .  S
C1269      N1270   1.369   1_565  A
C1271      C1717   1.486       .  S
C1271      N1272   1.356       .  A
C1271      N1276   1.363       .  A
N1272      C1273   1.353       .  A
C1273      C1600   1.480       .  S
C1273      N1274   1.355       .  A
N1274      C1275   1.358       .  A
C1275      C1561   1.492       .  S
C1275      N1276   1.363       .  A
C1277      C1549   1.491       .  S
C1277      N1278   1.364       .  A
C1277      N1282   1.353       .  A
N1278      C3695   1.363       .  A
C1279      C1753   1.491       .  S
C1279      N3694   1.365       .  A
C1279      N1280   1.364       .  A
N1280      C3697   1.358       .  A
C1281      C1612   1.472       .  S
C1281      N3696   1.356       .  A
C1281      N1282   1.350       .  A
C1283      C1801   1.497       .  S
C1283      N1284   1.357       .  A
C1283      N1288   1.371       .  A
N1284      C1285   1.351       .  A
C1285      C1645   1.467       .  S
C1285      N1286   1.349       .  A
N1286      C1287   1.355       .  A
C1287      C1540   1.497       .  S
C1287      N1288   1.369       .  A
C1289      C1528   1.485       .  S
C1289      N1290   1.360       .  A
C1289      N3710   1.364       .  A
N1290      C3707   1.359       .  A
C1291      C1636   1.465       .  S
C1291      N3706   1.347       .  A
C1291      N1292   1.341       .  A
N1292      C1293   1.351       .  A
C1293      C1729   1.500       .  S
C1293      N1294   1.372       .  A
N1294      C3705   1.374       .  A
Fe1295     O1311   2.077       .  S
Fe1295     O1301   2.051       .  S
Fe1295     O1308   2.066       .  S
Fe1295     O1300   2.071       .  S
Fe1295     O1306   1.981       .  S
Fe1296     O1299   2.070       .  S
Fe1296     O1303   2.056       .  S
Fe1296     O1307   2.062       .  S
Fe1296     O1312   2.069       .  S
Fe1296     O1306   1.976       .  S
Fe1297     O1315   2.072       .  S
Fe1297     O1302   2.058       .  S
Fe1297     O1309   2.060       .  S
Fe1297     O1298   2.073       .  S
Fe1297     O1306   1.973       .  S
O1298      C1305   1.271       .  A
O1299      C1313   1.268       .  A
O1300      C1305   1.274       .  A
O1301      C1304   1.267       .  A
O1302      C1314   1.268       .  A
O1303      C1316   1.271       .  A
C1304      O1309   1.265       .  A
C1304      C1552   1.491       .  S
C1305      C1489   1.500       .  S
O1307      C1310   1.269       .  A
O1308      C1310   1.266       .  A
C1310      C1501   1.496       .  S
O1311      C1316   1.271       .  A
O1312      C1314   1.269       .  A
C1313      O1315   1.273       .  A
C1313      C1537   1.501       .  S
C1314      C1513   1.485       .  S
C1316      C1576   1.493       .  S
Fe1317     O1333   2.074       .  S
Fe1317     O1323   2.070       .  S
Fe1317     O1330   2.069       .  S
Fe1317     O1322   2.083       .  S
Fe1317     O1328   1.971       .  S
Fe1318     O1321   2.066       .  S
Fe1318     O1325   2.069       .  S
Fe1318     O1329   2.068       .  S
Fe1318     O1334   2.072       .  S
Fe1318     O1328   1.975       .  S
Fe1319     O1337   2.069       .  S
Fe1319     O1324   2.061       .  S
Fe1319     O1331   2.056       .  S
Fe1319     O1320   2.070       .  S
Fe1319     O1328   1.974       .  S
O1320      C1327   1.271       .  A
O1321      C1335   1.271       .  A
O1322      C1327   1.274       .  A
O1323      C1326   1.268       .  A
O1324      C1336   1.268       .  A
O1325      C1338   1.270       .  A
C1326      O1331   1.268       .  A
C1326      C1468   1.495       .  S
C1327      C1525   1.494       .  S
O1329      C1332   1.269       .  A
O1330      C1332   1.273       .  A
C1332      C1564   1.499       .  S
O1333      C1338   1.271       .  A
O1334      C1336   1.270       .  A
C1335      O1337   1.269       .  A
C1335      C1477   1.494       .  S
C1336      C1588   1.491       .  S
C1338      C1456   1.486       .  S
C1339      C1420   1.499       .  S
C1339      C3760   1.417       .  A
C1340      C1408   1.488       .  S
C1340      C3757   1.415       .  A
C1341      C1441   1.493       .  S
C1341      C3756   1.410       .  A
C1342      C1432   1.492       .  S
C1342      C1343   1.421       .  A
C1343      C1393   1.502       .  S
C1343      C1344   1.419       .  A
C1344      C1381   1.490       .  S
C1344      C3755   1.417   1_455  A
C1345      C1504   1.494       .  S
C1345      N1346   1.356       .  A
C1345      N1350   1.363       .  A
N1346      C1347   1.354       .  A
C1347      C1429   1.485       .  S
N1348      C1349   1.363       .  A
C1349      C1768   1.492       .  S
C1351      C1480   1.485       .  S
C1351      N1352   1.355       .  A
C1353      C1417   1.487       .  S
C1353      N1354   1.362       .  A
N1354      C1355   1.365       .  A
C1355      C1672   1.485       .  S
C1355      N1356   1.362       .  A
C1357      C1492   1.493       .  S
C1357      N1358   1.364       .  A
C1357      N1362   1.357       .  A
N1358      C3775   1.365       .  A
C1359      C1741   1.492       .  S
C1359      N3774   1.364       .  A
C1359      N1360   1.359       .  A
N1360      C3777   1.353       .  A
C1361      C1384   1.479       .  S
C1361      N3776   1.353       .  A
C1361      N1362   1.353       .  A
C1363      C1693   1.492       .  S
C1363      N1364   1.363       .  A
C1363      N1368   1.363       .  A
N1364      C1365   1.362       .  A
C1365      C1396   1.493       .  S
C1365      N1366   1.360       .  A
N1366      C1367   1.359       .  A
C1367      C1453   1.482       .  S
C1367      N1368   1.362       .  A
C1369      C1465   1.488       .  S
C1369      N1370   1.357       .  A
C1369      N1374   1.361       .  A
N1370      C1371   1.353   1_455  A
C1371      C1444   1.483       .  S
C1371      N3788   1.355       .  A
N1372      C3787   1.359       .  A
N1372      C1373   1.363       .  A
C1373      C1708   1.487       .  S
C1373      N3790   1.366       .  A
N1374      C3789   1.362   1_455  A
C1375      C1777   1.473       .  S
C1375      N1376   1.359       .  A
C1375      N1380   1.360       .  A
N1376      C1377   1.356       .  A
C1377      C1405   1.480       .  S
C1377      N1378   1.355       .  A
N1378      C1379   1.359       .  A
C1379      C1516   1.493       .  S
C1379      N1380   1.361       .  A
C1381      C3798   1.402       .  A
C1381      C1386   1.410   1_455  A
C1382      C3797   1.402       .  A
C1382      C1383   1.396       .  A
C1382      H1387   1.090       .  S
C1383      C1384   1.413       .  A
C1383      C1390   1.444       .  S
C1384      C3801   1.405       .  A
C1385      C3800   1.405   1_655  A
C1385      C1386   1.399       .  A
C1385      H1388   1.082       .  S
C1386      C1389   1.444       .  S
C1389      N1391   1.157       .  T
C1390      N1392   1.157       .  T
C1393      C1394   1.405       .  A
C1393      C1398   1.413       .  A
C1394      C1395   1.405       .  A
C1394      H1399   1.084       .  S
C1395      C1396   1.415       .  A
C1395      C1402   1.443       .  S
C1396      C1397   1.406       .  A
C1397      C1398   1.404       .  A
C1397      H1400   1.085       .  S
C1398      C1401   1.442       .  S
C1401      N1403   1.157       .  T
C1402      N1404   1.157       .  T
C1405      C1406   1.404       .  A
C1405      C1410   1.414       .  A
C1406      C1407   1.399       .  A
C1406      H1411   1.085       .  S
C1407      C1408   1.408       .  A
C1407      C1414   1.443       .  S
C1408      C1409   1.403       .  A
C1409      C1410   1.403       .  A
C1409      H1412   1.085       .  S
C1410      C1413   1.444       .  S
C1413      N1415   1.157       .  T
C1414      N1416   1.157       .  T
C1417      C1418   1.404       .  A
C1418      C1419   1.405       .  A
C1418      H1423   1.084       .  S
C1419      C1420   1.412       .  A
C1419      C1426   1.442       .  S
C1421      C1422   1.399       .  A
C1421      H1424   1.081   1_545  S
C1422      C1425   1.444       .  S
C1425      N1427   1.157   1_545  T
C1426      N1428   1.157       .  T
C1429      C1434   1.415       .  A
C1430      C1431   1.396       .  A
C1430      H1435   1.083       .  S
C1431      C1438   1.443       .  S
C1432      C1433   1.404       .  A
C1433      C1434   1.403       .  A
C1433      H1436   1.085       .  S
C1434      C1437   1.444       .  S
C1437      N1439   1.157       .  T
C1438      N1440   1.157       .  T
C1441      C1442   1.403       .  A
C1441      C3862   1.409       .  A
C1442      C1443   1.399       .  A
C1442      H1447   1.085       .  S
C1443      C1444   1.413       .  A
C1443      C1450   1.444       .  S
C1444      C3861   1.406       .  A
C1445      C3860   1.405       .  A
C1445      C1446   1.399       .  A
C1445      H1448   1.085       .  S
C1446      C3857   1.408       .  A
C1446      C1449   1.442       .  S
C1449      N1451   1.157       .  T
C1450      N1452   1.157       .  T
C1453      C1454   1.405       .  A
C1453      C1458   1.410       .  A
C1454      C1455   1.405       .  A
C1454      H1459   1.085       .  S
C1455      C1456   1.413       .  A
C1455      C1462   1.443       .  S
C1456      C1457   1.406       .  A
C1457      C1458   1.403       .  A
C1457      H1460   1.085       .  S
C1458      C1461   1.443       .  S
C1461      N1463   1.157       .  T
C1462      N1464   1.157       .  T
C1465      C1466   1.406       .  A
C1465      C1470   1.415       .  A
C1466      C1467   1.406       .  A
C1466      H1471   1.086       .  S
C1467      C1468   1.420       .  A
C1467      C1474   1.444       .  S
C1468      C1469   1.407       .  A
C1469      C1470   1.394       .  A
C1469      H1472   1.086       .  S
C1470      C1473   1.446       .  S
C1473      N1475   1.157       .  T
C1474      N1476   1.158       .  T
C1477      C1478   1.407       .  A
C1477      C1482   1.420       .  A
C1478      C1479   1.396       .  A
C1478      H1483   1.085       .  S
C1479      C1480   1.413       .  A
C1479      C1486   1.446       .  S
C1480      C1481   1.405       .  A
C1481      C1482   1.405       .  A
C1481      H1484   1.085       .  S
C1482      C1485   1.444       .  S
C1485      N1487   1.157       .  T
C1486      N1488   1.157       .  T
C1489      C1490   1.407       .  A
C1489      C1494   1.422       .  A
C1490      C1491   1.399       .  A
C1490      H1495   1.084       .  S
C1491      C1492   1.418       .  A
C1491      C1498   1.446       .  S
C1492      C1493   1.405       .  A
C1493      C1494   1.406       .  A
C1493      H1496   1.084       .  S
C1494      C1497   1.444       .  S
C1497      N1499   1.157       .  T
C1498      N1500   1.158       .  T
C1501      C1502   1.405       .  A
C1501      C1506   1.420       .  A
C1502      C1503   1.396       .  A
C1502      H1507   1.085       .  S
C1503      C1504   1.419       .  A
C1503      C1510   1.446       .  S
C1504      C1505   1.407       .  A
C1505      C1506   1.406       .  A
C1505      H1508   1.086       .  S
C1506      C1509   1.445       .  S
C1509      N1511   1.158       .  T
C1510      N1512   1.158       .  T
C1513      C1514   1.405       .  A
C1513      C1518   1.414       .  A
C1514      C1515   1.407       .  A
C1514      H1519   1.086       .  S
C1515      C1516   1.419       .  A
C1515      C1522   1.444       .  S
C1516      C1517   1.406       .  A
C1517      C1518   1.395       .  A
C1517      H1520   1.086       .  S
C1518      C1521   1.446       .  S
C1521      N1523   1.157       .  T
C1522      N1524   1.157       .  T
C1525      C1526   1.407       .  A
C1525      C1530   1.417       .  A
C1526      C1527   1.401       .  A
C1526      H1531   1.084       .  S
C1527      C1528   1.410       .  A
C1527      C1534   1.443       .  S
C1528      C1529   1.406       .  A
C1529      C1530   1.408       .  A
C1529      H1532   1.085       .  S
C1530      C1533   1.445       .  S
C1533      N1535   1.158       .  T
C1534      N1536   1.157   1_455  T
C1537      C1538   1.404       .  A
C1537      C1542   1.422       .  A
C1538      C1539   1.397       .  A
C1538      H1543   1.086       .  S
C1539      C1540   1.421       .  A
C1539      C1546   1.446       .  S
C1540      C1541   1.406       .  A
C1541      C1542   1.409       .  A
C1541      H1544   1.086       .  S
C1542      C1545   1.444       .  S
C1545      N1547   1.157       .  T
C1546      N1548   1.158       .  T
C1549      C1550   1.403       .  A
C1549      C1554   1.420       .  A
C1550      C1551   1.399       .  A
C1550      H1555   1.094       .  S
C1551      C1552   1.418       .  A
C1551      C1558   1.444       .  S
C1552      C1553   1.406       .  A
C1553      C1554   1.395       .  A
C1553      H1556   1.089       .  S
C1554      C1557   1.447       .  S
C1557      N1559   1.158       .  T
C1558      N1560   1.157       .  T
C1561      C1562   1.405       .  A
C1561      C1566   1.417       .  A
C1562      C1563   1.406       .  A
C1562      H1567   1.085       .  S
C1563      C1564   1.422       .  A
C1563      C1570   1.445       .  S
C1564      C1565   1.407       .  A
C1565      C1566   1.399       .  A
C1565      H1568   1.085       .  S
C1566      C1569   1.446       .  S
C1569      N1571   1.158       .  T
C1570      N1572   1.158       .  T
C1573      C1574   1.409       .  A
C1573      C1578   1.423       .  A
C1574      C1575   1.409       .  A
C1574      H1579   1.084       .  S
C1575      C1576   1.416       .  A
C1575      C1582   1.444       .  S
C1576      C1577   1.403       .  A
C1577      C1578   1.392       .  A
C1577      H1580   1.084       .  S
C1578      C1581   1.447       .  S
C1581      N1583   1.158       .  T
C1582      N1584   1.157       .  T
C1585      C1586   1.403       .  A
C1585      C1590   1.409       .  A
C1586      C1587   1.400       .  A
C1586      H1591   1.084       .  S
C1587      C1588   1.414       .  A
C1587      C1594   1.444       .  S
C1588      C1589   1.409       .  A
C1589      C1590   1.401       .  A
C1589      H1592   1.086       .  S
C1590      C1593   1.440       .  S
C1594      N1596   1.157       .  T
C1597      C1598   1.403       .  A
C1597      C1602   1.409       .  A
C1598      C1599   1.398       .  A
C1598      H1603   1.084       .  S
C1599      C1600   1.412       .  A
C1599      C1606   1.444       .  S
C1600      C1601   1.406       .  A
C1601      C1602   1.398       .  A
C1601      H1604   1.084       .  S
C1602      C1605   1.443       .  S
C1605      N1607   1.157       .  T
C1606      N1608   1.157       .  T
C1609      C3674   1.482       .  S
C1609      C1610   1.401       .  A
C1609      C4030   1.409       .  A
C1610      C1611   1.400       .  A
C1610      H1615   1.084       .  S
C1611      C1612   1.413       .  A
C1611      C1618   1.444       .  S
C1612      C4029   1.401       .  A
C1613      C4028   1.402       .  A
C1613      C1614   1.401       .  A
C1613      H1616   1.082       .  S
C1614      C4025   1.410       .  A
C1614      C1617   1.443       .  S
C1617      N1619   1.157       .  T
C1618      N1620   1.157       .  T
C1621      C1626   1.408   1_565  A
C1622      C1623   1.399       .  A
C1622      H1627   1.085       .  S
C1623      C1630   1.443       .  S
C1624      C1625   1.405       .  A
C1625      C1626   1.396   1_565  A
C1625      H1628   1.085   1_565  S
C1626      C1629   1.443       .  S
C1629      N1631   1.157       .  T
C1630      N1632   1.157       .  T
C1633      C1634   1.400       .  A
C1633      C4054   1.408       .  A
C1634      C1635   1.394       .  A
C1634      H1639   1.084       .  S
C1635      C1636   1.411       .  A
C1635      C1642   1.445       .  S
C1636      C4053   1.401       .  A
C1637      C4052   1.403   1_455  A
C1637      C1638   1.398       .  A
C1637      H1640   1.083       .  S
C1638      C4049   1.408   1_455  A
C1638      C1641   1.443       .  S
C1641      N1643   1.157       .  T
C1642      N1644   1.157       .  T
C1645      C1646   1.401       .  A
C1645      C1650   1.411       .  A
C1646      C1647   1.394       .  A
C1646      H1651   1.085       .  S
C1647      C1648   1.408       .  A
C1647      C1654   1.443       .  S
C1648      C1649   1.401       .  A
C1649      C1650   1.399       .  A
C1649      H1652   1.084       .  S
C1650      C1653   1.444       .  S
C1653      N1655   1.157       .  T
C1654      N1656   1.157       .  T
C1657      C1662   1.409       .  A
C1658      C1659   1.396       .  A
C1658      H1663   1.079       .  S
C1659      C1666   1.445       .  S
C1660      C1661   1.404       .  A
C1661      C1662   1.400       .  A
C1661      H1664   1.085       .  S
C1662      C1665   1.443       .  S
C1665      N1667   1.157       .  T
C1666      N1668   1.157       .  T
C1669      C1670   1.405       .  A
C1669      C1674   1.416       .  A
C1670      C1671   1.400       .  A
C1670      H1675   1.084       .  S
C1671      C1672   1.414       .  A
C1671      C1678   1.444       .  S
C1672      C1673   1.404       .  A
C1673      C1674   1.403       .  A
C1673      H1676   1.083       .  S
C1674      C1677   1.446       .  S
C1677      N1679   1.158       .  T
C1681      C1682   1.407       .  A
C1681      C1686   1.418       .  A
C1682      C1683   1.406       .  A
C1682      H1687   1.084       .  S
C1683      C1684   1.419       .  A
C1683      C1690   1.444       .  S
C1684      C1685   1.404       .  A
C1685      C1686   1.393       .  A
C1685      H1688   1.085       .  S
C1686      C1689   1.445       .  S
C1689      N1691   1.157       .  T
C1690      N1692   1.157       .  T
C1693      C1694   1.403       .  A
C1693      C1698   1.415       .  A
C1694      C1695   1.404       .  A
C1694      H1699   1.087       .  S
C1695      C1696   1.418       .  A
C1695      C1702   1.445       .  S
C1696      C1697   1.409       .  A
C1697      C1698   1.409       .  A
C1697      H1700   1.086       .  S
C1698      C1701   1.444       .  S
C1701      N1703   1.157       .  T
C1702      N1704   1.157       .  T
C1705      C1706   1.409       .  A
C1705      C1710   1.414       .  A
C1706      C1707   1.405       .  A
C1706      H1711   1.086       .  S
C1707      C1708   1.412       .  A
C1707      C1714   1.445       .  S
C1708      C1709   1.405       .  A
C1709      C1710   1.405       .  A
C1709      H1712   1.085       .  S
C1710      C1713   1.444       .  S
C1713      N1715   1.157       .  T
C1714      N4132   1.157       .  T
N1716      C4130   1.158   1_455  T
C1717      C1718   1.403       .  A
C1717      C1722   1.411       .  A
C1718      C1719   1.397       .  A
C1718      H1723   1.084       .  S
C1719      C1720   1.416       .  A
C1719      C1726   1.444       .  S
C1720      C1721   1.410       .  A
C1721      C1722   1.406       .  A
C1721      H1724   1.084       .  S
C1722      C1725   1.441       .  S
C1725      N1727   1.156       .  T
C1726      N1728   1.157       .  T
C1729      C1730   1.410       .  A
C1729      C1734   1.426       .  A
C1730      C1731   1.412       .  A
C1730      H1735   1.084       .  S
C1731      C1732   1.419       .  A
C1731      C1738   1.444       .  S
C1732      C1733   1.398       .  A
C1733      C1734   1.386       .  A
C1733      H1736   1.086       .  S
C1734      C1737   1.446       .  S
C1737      N1739   1.157       .  T
C1738      N1740   1.158       .  T
C1741      C1742   1.406       .  A
C1741      C1746   1.414       .  A
C1742      C1743   1.398       .  A
C1742      H1747   1.087       .  S
C1743      C1744   1.418       .  A
C1743      C1750   1.446       .  S
C1744      C1745   1.410       .  A
C1745      C1746   1.403       .  A
C1745      H1748   1.086       .  S
C1746      C1749   1.444       .  S
C1749      N4167   1.157   1_455  T
C1750      N1752   1.158       .  T
N1751      C4165   1.157       .  T
C1753      C1754   1.408       .  A
C1753      C1758   1.412       .  A
C1754      C1755   1.411       .  A
C1754      H1759   1.085       .  S
C1755      C1756   1.415       .  A
C1755      C1762   1.443       .  S
C1756      C1757   1.406       .  A
C1757      C1758   1.400       .  A
C1757      H1760   1.086       .  S
C1758      C1761   1.445       .  S
C1761      N1763   1.157       .  T
C1762      N1764   1.157       .  T
C1765      C1766   1.410       .  A
C1765      C1770   1.415       .  A
C1766      C1767   1.404       .  A
C1766      H1771   1.081       .  S
C1767      C1768   1.414       .  A
C1767      C1774   1.444       .  S
C1768      C1769   1.406       .  A
C1769      C1770   1.402       .  A
C1769      H1772   1.067       .  S
C1770      C1773   1.445       .  S
C1773      N1775   1.158       .  T
C1774      N1776   1.157   1_565  T
C1777      C1778   1.401       .  A
C1777      C1782   1.409       .  A
C1778      C1779   1.400       .  A
C1778      H1783   1.084       .  S
C1779      C1780   1.415       .  A
C1779      C1786   1.445       .  S
C1780      C1781   1.407       .  A
C1781      C1782   1.403       .  A
C1781      H1784   1.084       .  S
C1782      C1785   1.444       .  S
C1785      N1787   1.157       .  T
C1786      N1788   1.158       .  T
C1789      C1790   1.402       .  A
C1789      C1794   1.415       .  A
C1790      C1791   1.388       .  A
C1790      H1795   1.087       .  S
C1791      C1792   1.416       .  A
C1791      C1798   1.447       .  S
C1792      C1793   1.410       .  A
C1793      C1794   1.411       .  A
C1793      H1796   1.086       .  S
C1794      C1797   1.443       .  S
C1797      N1799   1.157       .  T
C1798      N2404   1.157       .  T
N1800      C2402   1.157       .  T
C1801      C1802   1.404       .  A
C1801      C1806   1.421       .  A
C1802      C1803   1.406       .  A
C1802      H1807   1.082       .  S
C1803      C1804   1.414       .  A
C1803      C1810   1.444       .  S
C1804      C1805   1.403       .  A
C1805      C1806   1.400       .  A
C1805      H1808   1.085       .  S
C1806      C1809   1.443       .  S
C1809      N1811   1.157       .  T
C1810      N1812   1.157       .  T
Fe1813     O1829   2.059       .  S
Fe1813     O1819   2.068       .  S
Fe1814     O1825   2.078       .  S
Fe1814     O1830   2.059       .  S
Fe1814     O1824   1.969       .  S
Fe1815     O1820   2.066       .  S
Fe1815     O1816   2.056       .  S
Fe1815     O1824   1.974       .  S
O1816      C1823   1.265       .  A
O1817      C1831   1.269       .  A
O1818      C1823   1.271       .  A
O1819      C1822   1.272       .  A
O1820      C1832   1.271       .  A
O1821      C1834   1.272       .  A
C1822      O1827   1.271       .  A
C1822      C2408   1.494       .  S
C1823      C2384   1.482       .  S
O1825      C1828   1.270       .  A
O1826      C1828   1.269       .  A
C1828      C2369   1.485       .  S
O1829      C1834   1.267       .  A
O1830      C1832   1.269       .  A
C1831      O1833   1.268       .  A
C1831      C2360   1.485       .  S
C1832      C2348   1.490       .  S
C1834      C2396   1.477       .  S
Fe1835     O1851   2.058   1_554  S
Fe1835     O1841   2.069   1_554  S
Fe1836     O1847   2.075       .  S
Fe1836     O1852   2.067       .  S
Fe1836     O1846   1.978       .  S
Fe1837     O1842   2.077       .  S
Fe1837     O1838   2.084       .  S
Fe1837     O1846   1.973       .  S
O1838      C1845   1.275       .  A
O1839      C1853   1.270       .  A
O1840      C1845   1.267       .  A
O1841      C1844   1.268       .  A
O1842      C1854   1.273       .  A
O1843      C1856   1.270       .  A
C1844      O1849   1.269       .  A
C1844      C2309   1.482       .  S
C1845      C2336   1.498       .  S
O1847      C1850   1.267       .  A
O1848      C1850   1.271       .  A
C1850      C2288   1.500       .  S
O1851      C1856   1.269       .  A
O1852      C1854   1.271       .  A
C1853      O1855   1.269       .  A
C1853      C2300   1.491       .  S
C1854      C2324   1.497       .  S
C1856      C2273   1.478       .  S
C1857      C2261   1.488       .  S
C1857      C1858   1.412       .  A
C1857      C3070   1.411   1_565  A
C1858      C2252   1.484       .  S
C1858      C1859   1.409       .  A
C1859      C2237   1.482       .  S
C1859      C4276   1.411       .  A
C1860      C2225   1.487       .  S
C1860      C4275   1.410   1_455  A
C1861      C2201   1.485       .  S
C1861      C1862   1.410       .  A
C1862      C4629   1.482       .  S
C1862      C3065   1.408   1_455  A
C1863      C2189   1.479       .  S
C1863      N1868   1.359       .  A
N1864      C1865   1.364       .  A
C1865      C2285   1.497       .  S
C1865      N1866   1.355       .  A
C1867      C2264   1.478       .  S
C1867      N1868   1.355       .  A
C1869      C2177   1.497       .  S
C1869      N1870   1.352       .  A
C1871      C2228   1.474       .  S
C1871      N1872   1.350       .  A
N1872      C1873   1.359       .  A
C1873      C2393   1.478       .  S
C1873      N1874   1.367   1_565  A
C1875      C2321   1.491       .  S
C1875      N1876   1.359       .  A
C1875      N1880   1.363       .  A
N1876      C1877   1.352       .  A
C1877      C2204   1.473       .  S
C1877      N1878   1.354       .  A
N1878      C1879   1.357       .  A
C1879      C2165   1.488       .  S
C1879      N1880   1.363       .  A
C1881      C2153   1.502       .  S
C1881      N1882   1.368       .  A
C1881      N1886   1.356       .  A
N1882      C4299   1.369       .  A
C1883      C2357   1.482       .  S
C1883      N4298   1.366   1_455  A
C1883      N1884   1.360       .  A
N1884      C4301   1.353       .  A
C1885      C2216   1.479       .  S
C1885      N4300   1.354       .  A
C1885      N1886   1.350       .  A
C1887      C2405   1.495       .  S
C1887      N1888   1.358       .  A
C1887      N1892   1.363       .  A
N1888      C1889   1.355       .  A
C1889      C2249   1.472       .  S
C1889      N1890   1.352       .  A
N1890      C1891   1.353       .  A
C1891      C2144   1.466       .  S
C1891      N1892   1.359       .  A
C1893      C2132   1.480       .  S
C1893      N1894   1.360       .  A
C1893      N4314   1.361       .  A
N1894      C4311   1.358       .  A
C1895      C2240   1.473       .  S
C1895      N4310   1.354       .  A
C1895      N1896   1.348       .  A
N1896      C1897   1.353       .  A
C1897      C2333   1.495       .  S
C1897      N1898   1.368       .  A
N1898      C4309   1.370       .  A
Fe1899     O1915   2.067       .  S
Fe1899     O1905   2.051       .  S
Fe1899     O1912   2.072       .  S
Fe1899     O1904   2.060       .  S
Fe1899     O1910   1.976       .  S
Fe1900     O1903   2.050       .  S
Fe1900     O1907   2.070       .  S
Fe1900     O1911   2.048       .  S
Fe1900     O1916   2.070       .  S
Fe1900     O1910   1.974       .  S
Fe1901     O1919   2.079       .  S
Fe1901     O1906   2.063       .  S
Fe1901     O1913   2.071       .  S
Fe1901     O1902   2.084       .  S
Fe1901     O1910   1.980       .  S
O1902      C1909   1.274       .  A
O1903      C1917   1.265       .  A
O1904      C1909   1.273       .  A
O1905      C1908   1.266       .  A
O1906      C1918   1.270       .  A
O1907      C1920   1.274       .  A
C1908      O1913   1.266       .  A
C1908      C2156   1.495       .  S
C1909      C2093   1.500       .  S
O1911      C1914   1.264       .  A
O1912      C1914   1.266       .  A
C1914      C2105   1.495       .  S
O1915      C1920   1.270       .  A
O1916      C1918   1.270       .  A
C1917      O1919   1.271       .  A
C1917      C2141   1.475       .  S
C1918      C2117   1.481       .  S
C1920      C2180   1.491       .  S
Fe1921     O1937   2.069       .  S
Fe1921     O1927   2.082       .  S
Fe1921     O1934   2.072       .  S
Fe1921     O1926   2.074       .  S
Fe1921     O1932   1.962       .  S
Fe1922     O1925   2.068       .  S
Fe1922     O1929   2.053       .  S
Fe1922     O1933   2.064       .  S
Fe1922     O1938   2.058       .  S
Fe1922     O1932   1.962       .  S
Fe1923     O1941   2.067       .  S
Fe1923     O1928   2.075       .  S
Fe1923     O1935   2.068       .  S
Fe1923     O1924   2.058       .  S
Fe1923     O1932   1.957       .  S
O1924      C1931   1.269       .  A
O1925      C1939   1.271       .  A
O1926      C1931   1.272       .  A
O1927      C1930   1.272       .  A
O1928      C1940   1.272       .  A
O1929      C1942   1.268       .  A
C1930      O1935   1.271       .  A
C1930      C2072   1.499       .  S
C1931      C2129   1.490       .  S
O1933      C1936   1.267       .  A
O1934      C1936   1.271       .  A
C1936      C2168   1.497       .  S
O1937      C1942   1.272       .  A
O1938      C1940   1.268       .  A
C1939      O1941   1.268       .  A
C1939      C2081   1.492       .  S
C1940      C2192   1.489       .  S
C1942      C2060   1.482       .  S
C1943      C2024   1.484       .  S
C1943      C4364   1.414       .  A
C1944      C2012   1.482       .  S
C1944      C4361   1.415       .  A
C1945      C2045   1.501       .  S
C1945      C4360   1.418       .  A
C1946      C2036   1.496       .  S
C1946      C1947   1.417       .  A
C1947      C1997   1.496       .  S
C1947      C1948   1.420       .  A
C1948      C1985   1.483       .  S
C1948      C4359   1.415   1_455  A
C1949      C2108   1.487       .  S
C1949      N1950   1.357       .  A
C1949      N1954   1.360       .  A
N1950      C1951   1.354       .  A
C1951      C2033   1.483       .  S
N1952      C1953   1.359       .  A
C1953      C2372   1.481       .  S
C1955      C2084   1.489       .  S
C1955      N1956   1.356       .  A
C1957      C2021   1.474       .  S
C1957      N1958   1.356       .  A
N1958      C1959   1.360       .  A
C1959      C2276   1.473       .  S
C1959      N1960   1.361       .  A
C1961      C2096   1.495       .  S
C1961      N1962   1.369       .  A
C1961      N1966   1.358       .  A
N1962      C4379   1.369       .  A
C1963      C2345   1.486       .  S
C1963      N4378   1.364       .  A
C1963      N1964   1.358       .  A
N1964      C4381   1.352       .  A
C1965      C1988   1.479       .  S
C1965      N4380   1.349       .  A
C1965      N1966   1.352       .  A
C1967      C2297   1.486       .  S
C1967      N1968   1.362       .  A
C1967      N1972   1.365       .  A
N1968      C1969   1.358       .  A
C1969      C2000   1.486       .  S
C1969      N1970   1.352       .  A
N1970      C1971   1.354       .  A
C1971      C2057   1.480       .  S
C1971      N1972   1.361       .  A
C1973      C2069   1.493       .  S
C1973      N1974   1.359       .  A
C1973      N1978   1.363   1_455  A
N1974      C1975   1.357   1_455  A
C1975      C2048   1.495       .  S
C1975      N4392   1.361       .  A
N1976      C4391   1.359       .  A
N1976      C1977   1.362       .  A
C1977      C2312   1.478       .  S
C1977      N4394   1.361       .  A
N1978      C4393   1.365       .  A
C1979      C2381   1.475       .  S
C1979      N1980   1.357       .  A
C1979      N1984   1.364       .  A
N1980      C1981   1.354       .  A
C1981      C2009   1.473       .  S
C1981      N1982   1.353       .  A
N1982      C1983   1.358       .  A
C1983      C2120   1.487       .  S
C1983      N1984   1.364       .  A
C1985      C4402   1.401   1_455  A
C1985      C1990   1.410       .  A
C1986      C4401   1.403       .  A
C1986      C1987   1.396       .  A
C1986      H1991   1.087       .  S
C1987      C1988   1.412       .  A
C1987      C1994   1.444       .  S
C1988      C4405   1.406       .  A
C1989      C4404   1.403       .  A
C1989      C1990   1.396       .  A
C1989      H1992   1.088       .  S
C1990      C1993   1.442       .  S
C1993      N1995   1.157       .  T
C1994      N1996   1.157       .  T
C1997      C1998   1.405       .  A
C1997      C2002   1.412       .  A
C1998      C1999   1.399       .  A
C1998      H2003   1.085       .  S
C1999      C2000   1.413       .  A
C1999      C2006   1.443       .  S
C2000      C2001   1.408       .  A
C2001      C2002   1.399       .  A
C2001      H2004   1.085       .  S
C2002      C2005   1.443       .  S
C2005      N2007   1.158       .  T
C2006      N2008   1.157       .  T
C2009      C2010   1.404       .  A
C2009      C2014   1.411       .  A
C2010      C2011   1.399       .  A
C2010      H2015   1.084       .  S
C2011      C2012   1.408       .  A
C2011      C2018   1.444       .  S
C2012      C2013   1.401       .  A
C2013      C2014   1.399       .  A
C2013      H2016   1.083       .  S
C2014      C2017   1.443       .  S
C2017      N2019   1.157       .  T
C2018      N2020   1.157       .  T
C2021      C2022   1.403       .  A
C2022      C2023   1.399       .  A
C2022      H2027   1.084       .  S
C2023      C2024   1.409       .  A
C2023      C2030   1.443       .  S
C2025      C2026   1.400   1_565  A
C2025      H2028   1.082       .  S
C2026      C2029   1.444   1_545  S
C2029      N2031   1.157       .  T
C2030      N2032   1.157       .  T
C2033      C2038   1.414       .  A
C2034      C2035   1.398       .  A
C2034      H2039   1.085       .  S
C2035      C2042   1.443       .  S
C2036      C2037   1.404       .  A
C2037      C2038   1.402       .  A
C2037      H2040   1.085       .  S
C2038      C2041   1.444       .  S
C2041      N2043   1.157       .  T
C2042      N2044   1.157       .  T
C2045      C2046   1.404       .  A
C2045      C4466   1.411   1_655  A
C2046      C2047   1.402       .  A
C2046      H2051   1.085       .  S
C2047      C2048   1.416       .  A
C2047      C2054   1.443       .  S
C2048      C4465   1.409   1_655  A
C2049      C4464   1.406       .  A
C2049      C2050   1.400       .  A
C2049      H2052   1.086       .  S
C2050      C4461   1.408       .  A
C2050      C2053   1.442       .  S
C2053      N2055   1.157       .  T
C2054      N2056   1.157       .  T
C2057      C2058   1.405       .  A
C2057      C2062   1.411       .  A
C2058      C2059   1.394       .  A
C2058      H2063   1.086       .  S
C2059      C2060   1.412       .  A
C2059      C2066   1.443       .  S
C2060      C2061   1.407       .  A
C2061      C2062   1.402       .  A
C2061      H2064   1.086       .  S
C2062      C2065   1.439       .  S
C2065      N2067   1.155       .  T
C2066      N2068   1.157       .  T
C2069      C2070   1.407       .  A
C2069      C2074   1.415       .  A
C2070      C2071   1.409       .  A
C2070      H2075   1.085       .  S
C2071      C2072   1.419       .  A
C2071      C2078   1.443       .  S
C2072      C2073   1.407       .  A
C2073      C2074   1.399       .  A
C2073      H2076   1.085       .  S
C2074      C2077   1.445       .  S
C2077      N2079   1.157       .  T
C2078      N2080   1.157       .  T
C2081      C2082   1.406       .  A
C2081      C2086   1.418       .  A
C2082      C2083   1.397       .  A
C2082      H2087   1.086       .  S
C2083      C2084   1.414       .  A
C2083      C2090   1.445       .  S
C2084      C2085   1.407       .  A
C2085      C2086   1.405       .  A
C2085      H2088   1.086       .  S
C2086      C2089   1.444       .  S
C2089      N2091   1.158       .  T
C2090      N2092   1.157       .  T
C2093      C2094   1.406       .  A
C2093      C2098   1.421       .  A
C2094      C2095   1.397       .  A
C2094      H2099   1.084       .  S
C2095      C2096   1.419       .  A
C2095      C2102   1.447       .  S
C2096      C2097   1.406       .  A
C2097      C2098   1.409       .  A
C2097      H2100   1.084       .  S
C2098      C2101   1.444       .  S
C2101      N2103   1.157       .  T
C2102      N2104   1.158       .  T
C2105      C2106   1.408       .  A
C2105      C2110   1.419       .  A
C2106      C2107   1.397       .  A
C2106      H2111   1.085       .  S
C2107      C2108   1.414       .  A
C2107      C2114   1.446       .  S
C2108      C2109   1.405       .  A
C2109      C2110   1.405       .  A
C2109      H2112   1.085       .  S
C2110      C2113   1.444       .  S
C2113      N2115   1.157       .  T
C2114      N2116   1.157       .  T
C2117      C2118   1.405       .  A
C2117      C2122   1.413       .  A
C2118      C2119   1.407       .  A
C2118      H2123   1.087       .  S
C2119      C2120   1.415       .  A
C2119      C2126   1.442       .  S
C2120      C2121   1.404       .  A
C2121      C2122   1.394       .  A
C2121      H2124   1.087       .  S
C2122      C2125   1.446       .  S
C2125      N2127   1.157       .  T
C2126      N2128   1.156       .  T
C2129      C2130   1.408       .  A
C2129      C2134   1.418       .  A
C2130      C2131   1.399       .  A
C2130      H2135   1.085       .  S
C2131      C2132   1.411       .  A
C2131      C2138   1.443       .  S
C2132      C2133   1.403       .  A
C2133      C2134   1.401       .  A
C2133      H2136   1.086       .  S
C2134      C2137   1.445       .  S
C2137      N2139   1.158       .  T
C2138      N2140   1.156   1_455  T
C2141      C2142   1.403       .  A
C2141      C2146   1.416       .  A
C2142      C2143   1.403       .  A
C2142      H2147   1.085       .  S
C2143      C2144   1.410       .  A
C2143      C2150   1.443       .  S
C2144      C2145   1.396       .  A
C2145      C2146   1.396       .  A
C2145      H2148   1.085       .  S
C2146      C2149   1.445       .  S
C2149      N2151   1.157       .  T
C2150      N2152   1.157       .  T
C2153      C2154   1.412       .  A
C2153      C2158   1.424       .  A
C2154      C2155   1.411       .  A
C2154      H2159   1.084       .  S
C2155      C2156   1.416       .  A
C2155      C2162   1.443       .  S
C2156      C2157   1.402       .  A
C2157      C2158   1.392       .  A
C2157      H2160   1.085       .  S
C2158      C2161   1.446       .  S
C2161      N2163   1.158       .  T
C2162      N2164   1.157       .  T
C2165      C2166   1.402       .  A
C2165      C2170   1.417       .  A
C2166      C2167   1.401       .  A
C2166      H2171   1.086       .  S
C2167      C2168   1.423       .  A
C2167      C2174   1.444       .  S
C2168      C2169   1.407       .  A
C2169      C2170   1.401       .  A
C2169      H2172   1.085       .  S
C2170      C2173   1.446       .  S
C2173      N2175   1.158       .  T
C2174      N2176   1.157       .  T
C2177      C2178   1.408       .  A
C2177      C2182   1.425       .  A
C2178      C2179   1.407       .  A
C2178      H2183   1.085       .  S
C2179      C2180   1.417       .  A
C2179      C2186   1.444       .  S
C2180      C2181   1.400       .  A
C2181      C2182   1.393       .  A
C2181      H2184   1.086       .  S
C2182      C2185   1.447       .  S
C2185      N2187   1.158       .  T
C2186      N2188   1.158       .  T
C2189      C2190   1.404       .  A
C2189      C2194   1.410       .  A
C2190      C2191   1.402       .  A
C2190      H2195   1.084       .  S
C2191      C2192   1.417       .  A
C2191      C2198   1.445       .  S
C2192      C2193   1.408       .  A
C2193      C2194   1.399       .  A
C2193      H2196   1.083       .  S
C2194      C2197   1.444       .  S
C2198      N2200   1.158       .  T
C2201      C2202   1.401       .  A
C2201      C2206   1.409       .  A
C2202      C2203   1.394       .  A
C2202      H2207   1.084       .  S
C2203      C2204   1.409       .  A
C2203      C2210   1.444       .  S
C2204      C2205   1.405       .  A
C2205      C2206   1.401       .  A
C2205      H2208   1.084       .  S
C2206      C2209   1.443       .  S
C2209      N2211   1.157       .  T
C2210      N2212   1.157       .  T
C2213      C4278   1.484       .  S
C2213      C2214   1.400       .  A
C2213      C4634   1.408       .  A
C2214      C2215   1.401       .  A
C2214      H2219   1.084       .  S
C2215      C2216   1.415       .  A
C2215      C2222   1.444       .  S
C2216      C4633   1.403       .  A
C2217      C4632   1.402       .  A
C2217      C2218   1.398       .  A
C2217      H2220   1.082       .  S
C2218      C4629   1.408       .  A
C2218      C2221   1.443       .  S
C2221      N2223   1.157       .  T
C2222      N2224   1.157       .  T
C2225      C2230   1.407       .  A
C2226      C2227   1.400       .  A
C2226      H2231   1.086       .  S
C2227      C2234   1.443       .  S
C2228      C2229   1.405       .  A
C2229      C2230   1.396       .  A
C2229      H2232   1.086   1_565  S
C2230      C2233   1.442   1_565  S
C2233      N2235   1.157       .  T
C2234      N2236   1.157       .  T
C2237      C2238   1.400       .  A
C2237      C4658   1.408       .  A
C2238      C2239   1.397       .  A
C2238      H2243   1.085       .  S
C2239      C2240   1.413       .  A
C2239      C2246   1.444       .  S
C2240      C4657   1.403       .  A
C2241      C4656   1.403       .  A
C2241      C2242   1.400       .  A
C2241      H2244   1.085       .  S
C2242      C4653   1.410   1_455  A
C2242      C2245   1.443       .  S
C2245      N2247   1.157       .  T
C2246      N2248   1.157       .  T
C2249      C2250   1.402       .  A
C2249      C2254   1.412       .  A
C2250      C2251   1.397       .  A
C2250      H2255   1.085       .  S
C2251      C2252   1.408       .  A
C2251      C2258   1.443       .  S
C2252      C2253   1.401       .  A
C2253      C2254   1.399       .  A
C2253      H2256   1.083       .  S
C2254      C2257   1.445       .  S
C2257      N2259   1.157       .  T
C2258      N2260   1.157       .  T
C2261      C2266   1.410       .  A
C2262      C2263   1.400       .  A
C2262      H2267   1.083       .  S
C2263      C2270   1.444       .  S
C2264      C2265   1.404       .  A
C2265      C2266   1.401       .  A
C2265      H2268   1.085       .  S
C2266      C2269   1.444       .  S
C2269      N2271   1.157       .  T
C2270      N2272   1.157       .  T
C2273      C2274   1.405       .  A
C2273      C2278   1.412       .  A
C2274      C2275   1.401       .  A
C2274      H2279   1.085       .  S
C2275      C2276   1.411       .  A
C2275      C2282   1.444       .  S
C2276      C2277   1.402       .  A
C2277      C2278   1.398       .  A
C2277      H2280   1.085       .  S
C2278      C2281   1.445       .  S
C2281      N2283   1.157       .  T
C2285      C2286   1.408       .  A
C2285      C2290   1.419       .  A
C2286      C2287   1.409       .  A
C2286      H2291   1.084       .  S
C2287      C2288   1.421       .  A
C2287      C2294   1.443       .  S
C2288      C2289   1.405       .  A
C2289      C2290   1.396       .  A
C2289      H2292   1.084       .  S
C2290      C2293   1.445       .  S
C2293      N2295   1.157       .  T
C2294      N2296   1.157       .  T
C2297      C2298   1.403       .  A
C2297      C2302   1.412       .  A
C2298      C2299   1.401       .  A
C2298      H2303   1.080       .  S
C2299      C2300   1.415       .  A
C2299      C2306   1.445       .  S
C2300      C2301   1.409       .  A
C2301      C2302   1.406       .  A
C2301      H2304   1.083       .  S
C2302      C2305   1.444       .  S
C2305      N2307   1.157       .  T
C2306      N2308   1.157       .  T
C2309      C2310   1.406       .  A
C2309      C2314   1.411       .  A
C2310      C2311   1.403       .  A
C2310      H2315   1.085       .  S
C2311      C2312   1.412       .  A
C2311      C2318   1.445       .  S
C2312      C2313   1.403       .  A
C2313      C2314   1.401       .  A
C2313      H2316   1.085       .  S
C2314      C2317   1.444       .  S
C2317      N2319   1.157       .  T
C2318      N4736   1.157       .  T
N2320      C4734   1.158   1_455  T
C2321      C2322   1.403       .  A
C2321      C2326   1.414       .  A
C2322      C2323   1.395       .  A
C2322      H2327   1.085       .  S
C2323      C2324   1.418       .  A
C2323      C2330   1.442       .  S
C2324      C2325   1.410       .  A
C2325      C2326   1.406       .  A
C2325      H2328   1.083       .  S
C2326      C2329   1.440       .  S
C2329      N2331   1.156       .  T
C2330      N2332   1.156       .  T
C2333      C2334   1.405       .  A
C2333      C2338   1.421       .  A
C2334      C2335   1.409       .  A
C2334      H2339   1.085       .  S
C2335      C2336   1.422       .  A
C2335      C2342   1.444       .  S
C2336      C2337   1.402       .  A
C2337      C2338   1.396       .  A
C2337      H2340   1.084       .  S
C2338      C2341   1.447       .  S
C2341      N2343   1.158       .  T
C2342      N2344   1.157       .  T
C2345      C2346   1.407       .  A
C2345      C2350   1.412       .  A
C2346      C2347   1.396       .  A
C2346      H2351   1.084       .  S
C2347      C2348   1.414       .  A
C2347      C2354   1.445       .  S
C2348      C2349   1.411       .  A
C2349      C2350   1.401       .  A
C2349      H2352   1.084       .  S
C2350      C2353   1.444       .  S
C2353      N4771   1.157   1_455  T
C2354      N2356   1.158       .  T
N2355      C4769   1.157       .  T
C2357      C2358   1.406       .  A
C2357      C2362   1.411       .  A
C2358      C2359   1.410       .  A
C2358      H2363   1.087       .  S
C2359      C2360   1.414       .  A
C2359      C2366   1.443       .  S
C2360      C2361   1.403       .  A
C2361      C2362   1.396       .  A
C2361      H2364   1.088       .  S
C2362      C2365   1.446       .  S
C2365      N2367   1.157       .  T
C2366      N2368   1.157       .  T
C2369      C2370   1.406       .  A
C2369      C2374   1.412       .  A
C2370      C2371   1.403       .  A
C2370      H2375   1.086       .  S
C2371      C2372   1.409       .  A
C2371      C2378   1.445       .  S
C2372      C2373   1.406       .  A
C2373      C2374   1.406       .  A
C2373      H2376   1.085       .  S
C2374      C2377   1.444       .  S
C2377      N2379   1.157       .  T
C2378      N2380   1.157   1_565  T
C2381      C2382   1.405       .  A
C2381      C2386   1.407       .  A
C2382      C2383   1.403       .  A
C2382      H2387   1.083       .  S
C2383      C2384   1.410       .  A
C2383      C2390   1.444       .  S
C2384      C2385   1.407       .  A
C2385      C2386   1.401       .  A
C2385      H2388   1.084       .  S
C2386      C2389   1.444       .  S
C2389      N2391   1.157       .  T
C2390      N2392   1.157       .  T
C2393      C2394   1.401       .  A
C2393      C2398   1.413       .  A
C2394      C2395   1.392       .  A
C2394      H2399   1.085       .  S
C2395      C2396   1.411       .  A
C2395      C2402   1.446       .  S
C2396      C2397   1.407       .  A
C2397      C2398   1.407       .  A
C2397      H2400   1.085       .  S
C2398      C2401   1.443       .  S
C2401      N2403   1.157       .  T
C2405      C2406   1.407       .  A
C2405      C2410   1.419       .  A
C2406      C2407   1.401       .  A
C2406      H2411   1.082       .  S
C2407      C2408   1.416       .  A
C2407      C2414   1.444       .  S
C2408      C2409   1.408       .  A
C2409      C2410   1.398       .  A
C2409      H2412   1.085       .  S
C2410      C2413   1.446       .  S
C2413      N2415   1.158       .  T
C2414      N2416   1.157       .  T
Fe2417     O2433   2.082   1_556  S
Fe2417     O2423   2.079   1_556  S
Fe2417     O3034   2.081       .  S
Fe2417     O3026   2.076       .  S
Fe2417     O3032   1.976       .  S
Fe2418     O3025   2.085       .  S
Fe2418     O3029   2.080       .  S
Fe2418     O2429   2.071       .  S
Fe2418     O2434   2.067       .  S
Fe2418     O2428   1.975       .  S
Fe2419     O3041   2.067       .  S
Fe2419     O2424   2.062       .  S
Fe2419     O3035   2.070       .  S
Fe2419     O2420   2.067       .  S
Fe2419     O2428   1.976       .  S
O2420      C2427   1.268       .  A
O2421     Fe3022   2.075   1_554  S
O2421      C2435   1.268       .  A
O2422     Fe3021   2.071       .  S
O2422      C2427   1.270       .  A
O2423      C2426   1.273       .  A
O2424      C2436   1.269       .  A
O2425     Fe3022   2.068   1_554  S
O2425      C2438   1.271       .  A
C2426      O2431   1.270       .  A
C2426      C3012   1.486       .  S
C2427      C2988   1.478       .  S
O2428     Fe3021   1.973       .  S
O2429      C2432   1.269       .  A
O2430     Fe3021   2.069       .  S
O2430      C2432   1.268       .  A
O2431     Fe3023   2.063   1_554  S
C2432      C2973   1.483       .  S
O2433      C2438   1.272       .  A
O2434      C2436   1.269       .  A
C2435      O2437   1.268       .  A
C2435      C2964   1.481       .  S
C2436      C2952   1.490       .  S
O2437     Fe3023   2.061   1_554  S
C2438      C3000   1.495       .  S
Fe2439     O2455   2.056       .  S
Fe2439     O2445   2.078       .  S
Fe2439     O3056   2.076       .  S
Fe2439     O3048   2.057       .  S
Fe2439     O3054   1.974       .  S
Fe2440     O3047   2.064   1_554  S
Fe2440     O3051   2.088   1_554  S
Fe2440     O2451   2.065       .  S
Fe2440     O2456   2.081       .  S
Fe2440     O2450   1.978       .  S
Fe2441     O3063   2.081   1_554  S
Fe2441     O2446   2.064       .  S
Fe2441     O3057   2.067   1_554  S
Fe2441     O2442   2.081       .  S
Fe2441     O2450   1.974       .  S
O2442      C2449   1.273       .  A
O2443     Fe3044   2.071       .  S
O2443      C2457   1.271       .  A
O2444     Fe3043   2.051       .  S
O2444      C2449   1.266       .  A
O2445      C2448   1.271       .  A
O2446      C2458   1.268       .  A
O2447     Fe3044   2.072       .  S
O2447      C2460   1.272       .  A
C2448      O2453   1.267       .  A
C2448      C2913   1.491       .  S
C2449      C2940   1.483       .  S
O2450     Fe3043   1.974       .  S
O2451      C2454   1.268       .  A
O2452     Fe3043   2.063       .  S
O2452      C2454   1.271       .  A
O2453     Fe3045   2.053       .  S
C2454      C2892   1.488       .  S
O2455      C2460   1.268       .  A
O2456      C2458   1.272       .  A
C2457      O2459   1.271       .  A
C2457      C2904   1.495       .  S
C2458      C2928   1.493       .  S
O2459     Fe3045   2.075       .  S
C2460      C2877   1.484       .  S
C2461      C2865   1.484       .  S
C2461      C2462   1.413       .  A
C2462      C2856   1.484       .  S
C2462      C2463   1.411       .  A
C2463      C2841   1.494       .  S
C2464      C2829   1.488       .  S
C2464      C3673   1.411       .  A
C2465      C2805   1.486       .  S
C2465      C3672   1.413   1_545  A
C2465      C2466   1.414       .  A
C2467      C2793   1.487       .  S
C2467      N3676   1.367       .  A
C2467      N2472   1.358       .  A
N2468      C3675   1.367   1_545  A
N2468      C2469   1.368       .  A
C2469      C2889   1.491       .  S
C2469      N2470   1.357       .  A
N2470      C3679   1.351       .  A
C2471      C2868   1.478       .  S
C2471      N3678   1.354       .  A
C2471      N2472   1.352       .  A
C2473      C2781   1.486       .  S
C2473      N2474   1.355       .  A
C2473      N3686   1.363   1_545  A
N2474      C3683   1.350   1_545  A
C2475      C2832   1.478       .  S
C2475      N3682   1.348       .  A
C2475      N2476   1.351       .  A
N2476      C2477   1.361       .  A
C2477      C2997   1.495       .  S
C2477      N2478   1.371       .  A
N2478      C3681   1.371       .  A
C2479      C2925   1.491       .  S
C2479      N2480   1.357       .  A
C2479      N2484   1.365       .  A
N2480      C2481   1.354       .  A
C2481      C2808   1.479       .  S
C2481      N2482   1.356       .  A
N2482      C2483   1.358       .  A
C2483      C2769   1.489       .  S
C2483      N2484   1.364       .  A
C2485      C2757   1.493       .  S
C2485      N2486   1.366   1_655  A
C2485      N2490   1.352       .  A
C2487      C2961   1.480       .  S
C2487      N2488   1.359       .  A
C2489      C2820   1.469       .  S
C2489      N2490   1.347   1_455  A
C2491      C3009   1.490       .  S
C2491      N2492   1.361       .  A
C2491      N2496   1.368       .  A
N2492      C2493   1.354       .  A
C2493      C2853   1.475       .  S
C2493      N2494   1.350       .  A
N2494      C2495   1.354       .  A
C2495      C2748   1.493       .  S
C2495      N2496   1.365       .  A
C2497      C2736   1.487       .  S
C2497      N2498   1.358       .  A
C2499      C2844   1.483       .  S
C2499      N2500   1.356       .  A
N2500      C2501   1.358       .  A
C2501      C2937   1.484       .  S
C2501      N2502   1.362   1_655  A
Fe2503     O2519   2.070       .  S
Fe2503     O2509   2.058       .  S
Fe2503     O2516   2.064       .  S
Fe2503     O2508   2.062       .  S
Fe2503     O2514   1.966       .  S
Fe2504     O2507   2.076       .  S
Fe2504     O2511   2.062       .  S
Fe2504     O2515   2.067       .  S
Fe2504     O2520   2.065       .  S
Fe2504     O2514   1.961       .  S
Fe2505     O2523   2.066       .  S
Fe2505     O2510   2.064       .  S
Fe2505     O2517   2.059       .  S
Fe2505     O2506   2.080       .  S
Fe2505     O2514   1.963       .  S
O2506      C2513   1.273       .  A
O2507      C2521   1.270       .  A
O2508      C2513   1.271       .  A
O2509      C2512   1.269       .  A
O2510      C2522   1.269       .  A
O2511      C2524   1.271       .  A
C2512      O2517   1.267       .  A
C2512      C2760   1.476       .  S
C2513      C2697   1.497       .  S
O2515      C2518   1.271       .  A
O2516      C2518   1.268       .  A
C2518      C2709   1.494       .  S
O2519      C2524   1.269       .  A
O2520      C2522   1.269       .  A
C2521      O2523   1.272       .  A
C2521      C2745   1.497       .  S
C2522      C2721   1.474       .  S
C2524      C2784   1.494       .  S
Fe2525     O2541   2.063       .  S
Fe2525     O2531   2.072       .  S
Fe2525     O2538   2.073       .  S
Fe2525     O2530   2.072       .  S
Fe2525     O2536   1.965       .  S
Fe2526     O2529   2.055       .  S
Fe2526     O2533   2.056       .  S
Fe2526     O2537   2.071       .  S
Fe2526     O2542   2.056       .  S
Fe2526     O2536   1.970       .  S
Fe2527     O2545   2.072       .  S
Fe2527     O2532   2.078       .  S
Fe2527     O2539   2.072       .  S
Fe2527     O2528   2.079       .  S
Fe2527     O2536   1.969       .  S
O2528      C2535   1.272       .  A
O2529      C2543   1.268       .  A
O2530      C2535   1.271       .  A
O2531      C2534   1.270       .  A
O2532      C2544   1.273       .  A
O2533      C2546   1.267       .  A
C2534      O2539   1.272       .  A
C2534      C2676   1.497       .  S
C2535      C2733   1.498       .  S
O2537      C2540   1.269       .  A
O2538      C2540   1.273       .  A
C2540      C2772   1.501       .  S
O2541      C2546   1.268       .  A
O2542      C2544   1.268       .  A
C2543      O2545   1.269       .  A
C2543      C2685   1.491       .  S
C2544      C2796   1.495       .  S
C2546      C2664   1.490       .  S
C2547      C2628   1.491       .  S
C2547      C3756   1.410   1_545  A
C2548      C2616   1.493       .  S
C2548      C3755   1.411       .  A
C2549      C2649   1.491       .  S
C2549      C3758   1.414       .  A
C2550      C2640   1.501       .  S
C2550      C3757   1.417       .  A
C2550      C2551   1.423   1_565  A
C2551      C2601   1.493       .  S
C2551      C2552   1.421       .  A
C2552      C2589   1.495       .  S
C2553      C2712   1.492       .  S
C2553      N2554   1.358       .  A
C2553      N2558   1.359       .  A
N2554      C2555   1.356   1_545  A
C2555      C2637   1.488       .  S
C2555      N3764   1.360       .  A
N2556      C3763   1.357       .  A
N2556      C2557   1.359       .  A
C2557      C2976   1.478       .  S
C2557      N3766   1.362       .  A
N2558      C3765   1.359   1_545  A
C2559      C2688   1.480       .  S
C2559      N2560   1.355       .  A
C2559      N3772   1.356       .  A
N2560      C3769   1.354       .  A
C2561      C2625   1.477       .  S
C2561      N3768   1.350   1_545  A
C2561      N2562   1.357       .  A
N2562      C2563   1.361       .  A
C2563      C2880   1.478       .  S
C2563      N2564   1.363       .  A
N2564      C3767   1.359   1_545  A
C2565      C2700   1.490       .  S
C2565      N2566   1.361   1_655  A
C2565      N2570   1.360       .  A
C2567      C2949   1.484       .  S
C2567      N2568   1.358       .  A
C2569      C2592   1.487       .  S
C2569      N2570   1.357   1_455  A
C2571      C2901   1.489       .  S
C2571      N2572   1.362       .  A
C2571      N2576   1.364       .  A
N2572      C2573   1.358       .  A
C2573      C2604   1.480       .  S
C2573      N2574   1.350       .  A
N2574      C2575   1.353       .  A
C2575      C2661   1.489       .  S
C2575      N2576   1.362       .  A
C2577      C2673   1.491       .  S
C2577      N2578   1.356       .  A
C2577      N2582   1.363       .  A
N2578      C2579   1.352       .  A
C2579      C2652   1.479       .  S
N2580      C2581   1.360       .  A
C2581      C2916   1.482       .  S
C2583      C2985   1.475       .  S
C2583      N2584   1.357       .  A
C2583      N2588   1.360       .  A
N2584      C2585   1.358       .  A
C2585      C2613   1.483       .  S
C2585      N2586   1.357       .  A
N2586      C2587   1.359       .  A
C2587      C2724   1.482       .  S
C2587      N2588   1.360       .  A
C2589      C2594   1.414       .  A
C2590      C2591   1.400       .  A
C2590      H2595   1.087       .  S
C2591      C2592   1.416       .  A
C2591      C2598   1.444       .  S
C2593      C2594   1.402       .  A
C2593      H2596   1.086       .  S
C2594      C2597   1.444       .  S
C2597      N2599   1.158       .  T
C2598      N2600   1.157       .  T
C2601      C2602   1.404       .  A
C2601      C2606   1.411       .  A
C2602      C2603   1.397       .  A
C2602      H2607   1.087       .  S
C2603      C2604   1.411       .  A
C2603      C2610   1.443       .  S
C2604      C2605   1.406       .  A
C2605      C2606   1.399       .  A
C2605      H2608   1.088       .  S
C2606      C2609   1.442       .  S
C2609      N2611   1.157       .  T
C2610      N2612   1.157       .  T
C2613      C2614   1.405       .  A
C2613      C2618   1.415       .  A
C2614      C2615   1.401       .  A
C2614      H2619   1.084       .  S
C2615      C2616   1.409       .  A
C2615      C2622   1.443       .  S
C2616      C2617   1.403       .  A
C2617      C2618   1.402       .  A
C2617      H2620   1.084       .  S
C2618      C2621   1.444       .  S
C2621      N2623   1.157       .  T
C2622      N2624   1.157       .  T
C2625      C2626   1.403       .  A
C2625      C3838   1.415       .  A
C2626      C2627   1.401       .  A
C2626      H2631   1.086       .  S
C2627      C2628   1.413       .  A
C2627      C2634   1.443       .  S
C2628      C3837   1.399       .  A
C2629      C3836   1.401       .  A
C2629      C2630   1.400       .  A
C2629      H2632   1.084       .  S
C2630      C3833   1.415       .  A
C2630      C2633   1.444       .  S
C2633      N2635   1.157       .  T
C2634      N2636   1.157       .  T
C2637      C3846   1.405   1_565  A
C2637      C2642   1.413       .  A
C2638      C3845   1.405       .  A
C2638      C2639   1.400       .  A
C2638      H2643   1.084       .  S
C2639      C3848   1.411       .  A
C2639      C2646   1.442       .  S
C2640      C3847   1.412   1_565  A
C2640      C2641   1.406       .  A
C2641      C2642   1.405       .  A
C2641      H2644   1.085       .  S
C2642      C2645   1.443       .  S
C2645      N2647   1.157       .  T
C2646      N2648   1.157       .  T
C2649      C2650   1.405       .  A
C2650      C2651   1.401       .  A
C2650      H2655   1.084       .  S
C2651      C2652   1.412       .  A
C2651      C2658   1.444       .  S
C2653      C2654   1.399       .  A
C2653      H2656   1.086   1_655  S
C2654      C2657   1.441   1_655  S
C2657      N2659   1.157       .  T
C2658      N2660   1.157       .  T
C2661      C2662   1.405       .  A
C2661      C2666   1.410       .  A
C2662      C2663   1.395       .  A
C2662      H2667   1.085       .  S
C2663      C2664   1.417       .  A
C2663      C2670   1.445       .  S
C2664      C2665   1.409       .  A
C2665      C2666   1.402       .  A
C2665      H2668   1.085       .  S
C2666      C2669   1.436       .  S
C2669      N2671   1.154       .  T
C2670      N2672   1.157       .  T
C2673      C2674   1.405       .  A
C2673      C2678   1.416       .  A
C2674      C2675   1.408       .  A
C2674      H2679   1.085       .  S
C2675      C2676   1.420       .  A
C2675      C2682   1.443       .  S
C2676      C2677   1.406       .  A
C2677      C2678   1.398       .  A
C2677      H2680   1.084       .  S
C2678      C2681   1.446       .  S
C2681      N2683   1.157       .  T
C2682      N2684   1.157       .  T
C2685      C2686   1.408       .  A
C2685      C2690   1.418       .  A
C2686      C2687   1.395       .  A
C2686      H2691   1.084       .  S
C2687      C2688   1.411       .  A
C2687      C2694   1.446       .  S
C2688      C2689   1.404       .  A
C2689      C2690   1.403       .  A
C2689      H2692   1.085       .  S
C2690      C2693   1.443       .  S
C2693      N2695   1.157       .  T
C2694      N2696   1.157       .  T
C2697      C2698   1.409       .  A
C2697      C2702   1.418       .  A
C2698      C2699   1.398       .  A
C2698      H2703   1.084       .  S
C2699      C2700   1.414       .  A
C2699      C2706   1.446       .  S
C2700      C2701   1.407       .  A
C2701      C2702   1.407       .  A
C2701      H2704   1.084       .  S
C2702      C2705   1.443       .  S
C2705      N2707   1.157       .  T
C2706      N2708   1.158       .  T
C2709      C2710   1.407       .  A
C2709      C2714   1.418       .  A
C2710      C2711   1.397       .  A
C2710      H2715   1.086       .  S
C2711      C2712   1.416       .  A
C2711      C2718   1.445       .  S
C2712      C2713   1.408       .  A
C2713      C2714   1.404       .  A
C2713      H2716   1.086       .  S
C2714      C2717   1.445       .  S
C2717      N2719   1.158       .  T
C2718      N2720   1.157       .  T
C2721      C2722   1.401       .  A
C2721      C2726   1.411       .  A
C2722      C2723   1.404       .  A
C2722      H2727   1.084       .  S
C2723      C2724   1.415       .  A
C2723      C2730   1.441       .  S
C2724      C2725   1.403       .  A
C2725      C2726   1.397       .  A
C2725      H2728   1.084       .  S
C2726      C2729   1.445       .  S
C2729      N2731   1.157       .  T
C2730      N2732   1.157       .  T
C2733      C2734   1.410       .  A
C2733      C2738   1.417       .  A
C2734      C2735   1.403       .  A
C2734      H2739   1.086       .  S
C2735      C2736   1.409       .  A
C2735      C2742   1.443       .  S
C2736      C2737   1.407       .  A
C2737      C2738   1.406       .  A
C2737      H2740   1.086       .  S
C2738      C2741   1.444       .  S
C2741      N2743   1.158       .  T
C2742      N2744   1.157       .  T
C2745      C2746   1.405       .  A
C2745      C2750   1.422       .  A
C2746      C2747   1.396       .  A
C2746      H2751   1.086       .  S
C2747      C2748   1.419       .  A
C2747      C2754   1.446       .  S
C2748      C2749   1.405       .  A
C2749      C2750   1.407       .  A
C2749      H2752   1.086       .  S
C2750      C2753   1.444       .  S
C2753      N2755   1.158       .  T
C2754      N2756   1.158       .  T
C2757      C2758   1.408       .  A
C2757      C2762   1.426       .  A
C2758      C2759   1.402       .  A
C2758      H2763   1.085       .  S
C2759      C2760   1.411       .  A
C2759      C2766   1.444       .  S
C2760      C2761   1.397       .  A
C2761      C2762   1.393       .  A
C2761      H2764   1.086       .  S
C2762      C2765   1.446       .  S
C2765      N2767   1.158       .  T
C2766      N2768   1.157       .  T
C2769      C2770   1.403       .  A
C2769      C2774   1.415       .  A
C2770      C2771   1.405       .  A
C2770      H2775   1.084       .  S
C2771      C2772   1.424       .  A
C2771      C2778   1.445       .  S
C2772      C2773   1.408       .  A
C2773      C2774   1.401       .  A
C2773      H2776   1.084       .  S
C2774      C2777   1.445       .  S
C2777      N2779   1.157       .  T
C2778      N2780   1.158       .  T
C2781      C2782   1.403       .  A
C2781      C2786   1.417       .  A
C2782      C2783   1.403       .  A
C2782      H2787   1.083       .  S
C2783      C2784   1.421       .  A
C2783      C2790   1.445       .  S
C2784      C2785   1.406       .  A
C2785      C2786   1.396       .  A
C2785      H2788   1.084       .  S
C2786      C2789   1.446       .  S
C2789      N2791   1.158       .  T
C2790      N2792   1.157       .  T
C2793      C2794   1.404       .  A
C2793      C2798   1.409       .  A
C2794      C2795   1.399       .  A
C2794      H2799   1.083       .  S
C2795      C2796   1.419       .  A
C2795      C2802   1.445       .  S
C2796      C2797   1.409       .  A
C2797      C2798   1.401       .  A
C2797      H2800   1.084       .  S
C2798      C2801   1.438       .  S
C2801      N4011   1.155       .  T
C2802      N2804   1.157       .  T
N2803      C4009   1.158       .  T
C2805      C2806   1.402       .  A
C2805      C2810   1.409       .  A
C2806      C2807   1.397       .  A
C2806      H2811   1.084       .  S
C2807      C2808   1.412       .  A
C2807      C2814   1.444       .  S
C2808      C2809   1.406       .  A
C2809      C2810   1.399       .  A
C2809      H2812   1.084       .  S
C2810      C2813   1.443       .  S
C2813      N2815   1.157       .  T
C2814      N2816   1.157       .  T
C2817      C2818   1.401       .  A
C2818      C2819   1.398       .  A
C2818      H2823   1.086       .  S
C2819      C2820   1.411       .  A
C2819      C2826   1.444       .  S
C2821      C2822   1.399       .  A
C2821      H2824   1.085       .  S
C2822      C2825   1.444       .  S
C2825      N2827   1.157       .  T
C2826      N2828   1.157       .  T
C2829      C4038   1.401       .  A
C2829      C2834   1.409       .  A
C2830      C4037   1.403       .  A
C2830      C2831   1.398       .  A
C2830      H2835   1.083       .  S
C2831      C4040   1.413       .  A
C2831      C2838   1.444       .  S
C2832      C4039   1.413       .  A
C2832      C2833   1.405       .  A
C2833      C2834   1.399       .  A
C2833      H2836   1.084       .  S
C2834      C2837   1.443       .  S
C2837      N2839   1.157       .  T
C2838      N2840   1.157       .  T
C2841      C2842   1.402       .  A
C2842      C2843   1.401       .  A
C2842      H2847   1.082       .  S
C2843      C2844   1.414       .  A
C2843      C2850   1.444       .  S
C2845      C2846   1.397       .  A
C2845      H2848   1.085       .  S
C2846      C2849   1.443       .  S
C2849      N2851   1.157       .  T
C2850      N2852   1.157       .  T
C2853      C2854   1.402       .  A
C2853      C2858   1.414       .  A
C2854      C2855   1.399       .  A
C2854      H2859   1.085       .  S
C2855      C2856   1.411       .  A
C2855      C2862   1.444       .  S
C2856      C2857   1.400       .  A
C2857      C2858   1.399       .  A
C2857      H2860   1.085       .  S
C2858      C2861   1.444       .  S
C2861      N2863   1.157       .  T
C2862      N2864   1.157       .  T
C2865      C4074   1.399       .  A
C2865      C2870   1.408       .  A
C2866      C4073   1.400       .  A
C2866      C2867   1.396       .  A
C2866      H2871   1.084       .  S
C2867      C4076   1.413       .  A
C2867      C2874   1.444       .  S
C2868      C4075   1.413       .  A
C2868      C2869   1.406       .  A
C2869      C2870   1.400       .  A
C2869      H2872   1.085       .  S
C2870      C2873   1.444       .  S
C2873      N2875   1.157       .  T
C2874      N2876   1.157       .  T
C2877      C2878   1.406       .  A
C2877      C2882   1.416       .  A
C2878      C2879   1.398       .  A
C2878      H2883   1.084       .  S
C2879      C2880   1.410       .  A
C2879      C2886   1.444       .  S
C2880      C2881   1.404       .  A
C2881      C2882   1.401       .  A
C2881      H2884   1.083       .  S
C2882      C2885   1.445       .  S
C2885      N2887   1.158       .  T
C2886      N4096   1.157   1_545  T
N2888      C4094   1.157       .  T
C2889      C2890   1.405       .  A
C2889      C2894   1.418       .  A
C2890      C2891   1.405       .  A
C2890      H2895   1.077       .  S
C2891      C2892   1.416       .  A
C2891      C2898   1.444       .  S
C2892      C2893   1.403       .  A
C2893      C2894   1.395       .  A
C2893      H2896   1.084       .  S
C2894      C2897   1.444       .  S
C2897      N2899   1.157       .  T
C2898      N2900   1.157       .  T
C2901      C2902   1.405       .  A
C2901      C2906   1.414       .  A
C2902      C2903   1.402       .  A
C2902      H2907   1.083       .  S
C2903      C2904   1.416       .  A
C2903      C2910   1.445       .  S
C2904      C2905   1.410       .  A
C2905      C2906   1.405       .  A
C2905      H2908   1.083       .  S
C2906      C2909   1.444       .  S
C2909      N2911   1.157       .  T
C2910      N2912   1.157       .  T
C2913      C2914   1.408       .  A
C2913      C2918   1.417       .  A
C2914      C2915   1.403       .  A
C2914      H2919   1.085       .  S
C2915      C2916   1.412       .  A
C2915      C2922   1.444       .  S
C2916      C2917   1.402       .  A
C2917      C2918   1.398       .  A
C2917      H2920   1.086       .  S
C2918      C2921   1.443       .  S
C2921      N2923   1.156       .  T
C2925      C2926   1.405       .  A
C2925      C2930   1.412       .  A
C2926      C2927   1.400       .  A
C2926      H2931   1.082       .  S
C2927      C2928   1.415       .  A
C2927      C2934   1.444       .  S
C2928      C2929   1.410       .  A
C2929      C2930   1.406       .  A
C2929      H2932   1.084       .  S
C2930      C2933   1.441       .  S
C2933      N2935   1.156       .  T
C2934      N2936   1.157       .  T
C2937      C2938   1.405       .  A
C2937      C2942   1.411       .  A
C2938      C2939   1.400       .  A
C2938      H2943   1.080       .  S
C2939      C2940   1.409       .  A
C2939      C2946   1.445       .  S
C2940      C2941   1.408       .  A
C2941      C2942   1.403       .  A
C2941      H2944   1.085       .  S
C2942      C2945   1.443       .  S
C2945      N2947   1.157   1_655  T
C2946      N2948   1.157       .  T
C2949      C2950   1.404       .  A
C2949      C2954   1.413       .  A
C2950      C2951   1.398       .  A
C2950      H2955   1.083       .  S
C2951      C2952   1.415       .  A
C2951      C2958   1.445       .  S
C2952      C2953   1.409       .  A
C2953      C2954   1.403       .  A
C2953      H2956   1.084       .  S
C2954      C2957   1.444       .  S
C2958      N2960   1.157       .  T
C2961      C2962   1.401       .  A
C2961      C2966   1.412       .  A
C2962      C2963   1.395       .  A
C2962      H2967   1.084       .  S
C2963      C2964   1.412       .  A
C2963      C2970   1.446       .  S
C2964      C2965   1.407       .  A
C2965      C2966   1.409       .  A
C2965      H2968   1.083       .  S
C2966      C2969   1.442       .  S
C2969      N2971   1.156       .  T
C2970      N2972   1.157       .  T
C2973      C2974   1.406       .  A
C2973      C2978   1.412       .  A
C2974      C2975   1.401       .  A
C2974      H2979   1.085       .  S
C2975      C2976   1.409       .  A
C2975      C2982   1.444       .  S
C2976      C2977   1.404       .  A
C2977      C2978   1.404       .  A
C2977      H2980   1.084       .  S
C2978      C2981   1.444       .  S
C2981      N2983   1.157       .  T
C2982      N2984   1.157       .  T
C2985      C2986   1.405       .  A
C2985      C2990   1.409       .  A
C2986      C2987   1.404       .  A
C2986      H2991   1.083       .  S
C2987      C2988   1.410       .  A
C2987      C2994   1.444       .  S
C2988      C2989   1.403       .  A
C2989      C2990   1.399       .  A
C2989      H2992   1.084       .  S
C2990      C2993   1.443       .  S
C2993      N2995   1.157       .  T
C2994      N2996   1.157       .  T
C2997      C2998   1.403       .  A
C2997      C3002   1.415       .  A
C2998      C2999   1.393       .  A
C2998      H3003   1.086       .  S
C2999      C3000   1.415       .  A
C2999      C3006   1.446       .  S
C3000      C3001   1.411       .  A
C3001      C3002   1.413       .  A
C3001      H3004   1.086       .  S
C3002      C3005   1.442       .  S
C3005      N3007   1.157       .  T
C3006      N3612   1.157       .  T
N3008      C3610   1.157       .  T
C3009      C3010   1.403       .  A
C3009      C3014   1.417       .  A
C3010      C3011   1.404       .  A
C3010      H3015   1.084       .  S
C3011      C3012   1.416       .  A
C3011      C3018   1.445       .  S
C3012      C3013   1.402       .  A
C3013      C3014   1.401       .  A
C3013      H3016   1.085       .  S
C3014      C3017   1.443       .  S
C3017      N3019   1.157       .  T
C3018      N3020   1.157       .  T
Fe3021     O3037   2.073       .  S
Fe3021     O3027   2.071       .  S
Fe3022     O3033   2.063       .  S
Fe3022     O3038   2.086       .  S
Fe3022     O3032   1.974       .  S
Fe3023     O3028   2.061       .  S
Fe3023     O3024   2.060       .  S
Fe3023     O3032   1.971       .  S
O3024      C3031   1.267       .  A
O3025      C3039   1.274       .  A
O3026      C3031   1.271       .  A
O3027      C3030   1.271       .  A
O3028      C3040   1.269       .  A
O3029      C3042   1.274       .  A
C3030      O3035   1.269       .  A
C3030      C3616   1.486       .  S
C3031      C3592   1.484       .  S
O3033      C3036   1.269       .  A
O3034      C3036   1.272       .  A
C3036      C3577   1.494       .  S
O3037      C3042   1.271       .  A
O3038      C3040   1.272       .  A
C3039      O3041   1.270       .  A
C3039      C3568   1.489       .  S
C3040      C3556   1.503       .  S
C3042      C3604   1.485       .  S
Fe3043     O3059   2.051   1_554  S
Fe3043     O3049   2.065   1_554  S
Fe3044     O3055   2.076       .  S
Fe3044     O3060   2.071       .  S
Fe3044     O3054   1.971       .  S
Fe3045     O3050   2.060       .  S
Fe3045     O3046   2.066       .  S
Fe3045     O3054   1.973       .  S
O3046      C3053   1.270       .  A
O3047      C3061   1.270       .  A
O3048      C3053   1.268       .  A
O3049      C3052   1.269       .  A
O3050      C3062   1.268       .  A
O3051      C3064   1.273       .  A
C3052      O3057   1.269       .  A
C3052      C3517   1.483       .  S
C3053      C3544   1.485       .  S
O3055      C3058   1.270       .  A
O3056      C3058   1.272       .  A
C3058      C3496   1.502       .  S
O3059      C3064   1.266       .  A
O3060      C3062   1.271       .  A
C3061      O3063   1.273       .  A
C3061      C3508   1.491       .  S
C3062      C3532   1.485       .  S
C3064      C3481   1.491       .  S
C3065      C3469   1.485       .  S
C3065      C3066   1.409       .  A
C3066      C3460   1.479       .  S
C3066      C3067   1.409       .  A
C3067      C3445   1.485       .  S
C3068      C3433   1.501       .  S
C3068      C4277   1.418       .  A
C3069      C3409   1.485       .  S
C3069      C4276   1.412   1_545  A
C3069      C3070   1.413       .  A
C3071      C3397   1.478       .  S
C3071      N4280   1.362       .  A
C3071      N3076   1.359       .  A
N3072      C4279   1.366   1_545  A
N3072      C3073   1.366       .  A
C3073      C3493   1.498       .  S
C3073      N3074   1.357       .  A
N3074      C4283   1.355       .  A
C3075      C3472   1.478       .  S
C3075      N4282   1.354       .  A
C3075      N3076   1.354       .  A
C3077      C3385   1.503       .  S
C3077      N3078   1.355       .  A
C3077      N4290   1.369   1_545  A
N3078      C4287   1.350   1_545  A
C3079      C3436   1.495       .  S
C3079      N4286   1.354       .  A
C3079      N3080   1.359       .  A
N3080      C3081   1.365       .  A
C3081      C3601   1.490       .  S
C3081      N3082   1.365       .  A
N3082      C4285   1.363       .  A
C3083      C3529   1.479       .  S
C3083      N3084   1.355       .  A
C3083      N3088   1.362       .  A
N3084      C3085   1.352       .  A
C3085      C3412   1.479       .  S
C3085      N3086   1.357       .  A
N3086      C3087   1.361       .  A
C3087      C3373   1.499       .  S
C3087      N3088   1.362       .  A
C3089      C3361   1.500       .  S
C3089      N3090   1.366   1_655  A
C3089      N3094   1.354       .  A
C3091      C3565   1.492       .  S
C3091      N3092   1.362       .  A
C3093      C3424   1.480       .  S
C3093      N3094   1.349   1_455  A
C3095      C3613   1.487       .  S
C3095      N3096   1.360       .  A
C3095      N3100   1.369       .  A
N3096      C3097   1.351       .  A
C3097      C3457   1.470       .  S
C3097      N3098   1.348       .  A
N3098      C3099   1.353       .  A
C3099      C3352   1.496       .  S
C3099      N3100   1.367       .  A
C3101      C3340   1.492       .  S
C3101      N3102   1.362       .  A
C3103      C3448   1.476       .  S
C3103      N3104   1.351       .  A
N3104      C3105   1.354       .  A
C3105      C3541   1.481       .  S
C3105      N3106   1.359       .  A
Fe3107     O3123   2.074       .  S
Fe3107     O3113   2.053       .  S
Fe3107     O3120   2.071       .  S
Fe3107     O3112   2.073       .  S
Fe3107     O3118   1.967       .  S
Fe3108     O3111   2.080       .  S
Fe3108     O3115   2.068       .  S
Fe3108     O3119   2.075       .  S
Fe3108     O3124   2.082       .  S
Fe3108     O3118   1.967       .  S
Fe3109     O3127   2.057       .  S
Fe3109     O3114   2.071       .  S
Fe3109     O3121   2.073       .  S
Fe3109     O3110   2.064       .  S
Fe3109     O3118   1.968       .  S
O3110      C3117   1.270       .  A
O3111      C3125   1.270       .  A
O3112      C3117   1.274       .  A
O3113      C3116   1.267       .  A
O3114      C3126   1.271       .  A
O3115      C3128   1.273       .  A
C3116      O3121   1.268       .  A
C3116      C3364   1.483       .  S
C3117      C3301   1.489       .  S
O3119      C3122   1.272       .  A
O3120      C3122   1.269       .  A
C3122      C3313   1.500       .  S
O3123      C3128   1.270       .  A
O3124      C3126   1.272       .  A
C3125      O3127   1.270       .  A
C3125      C3349   1.492       .  S
C3126      C3325   1.498       .  S
C3128      C3388   1.491       .  S
Fe3129     O3145   2.070       .  S
Fe3129     O3135   2.060       .  S
Fe3129     O3142   2.050       .  S
Fe3129     O3134   2.077       .  S
Fe3129     O3140   1.978       .  S
Fe3130     O3133   2.076       .  S
Fe3130     O3137   2.060       .  S
Fe3130     O3141   2.092       .  S
Fe3130     O3146   2.065       .  S
Fe3130     O3140   1.978       .  S
Fe3131     O3149   2.073       .  S
Fe3131     O3136   2.058       .  S
Fe3131     O3143   2.046       .  S
Fe3131     O3132   2.070       .  S
Fe3131     O3140   1.978       .  S
O3132      C3139   1.271       .  A
O3133      C3147   1.274       .  A
O3134      C3139   1.273       .  A
O3135      C3138   1.264       .  A
O3136      C3148   1.267       .  A
O3137      C3150   1.269       .  A
C3138      O3143   1.266       .  A
C3138      C3280   1.490       .  S
C3139      C3337   1.495       .  S
O3141      C3144   1.272       .  A
O3142      C3144   1.268       .  A
C3144      C3376   1.503       .  S
O3145      C3150   1.271       .  A
O3146      C3148   1.269       .  A
C3147      O3149   1.269       .  A
C3147      C3289   1.502       .  S
C3148      C3400   1.486       .  S
C3150      C3268   1.485       .  S
C3151      C3232   1.493       .  S
C3151      C4360   1.414   1_545  A
C3152      C3220   1.489       .  S
C3152      C4359   1.407       .  A
C3153      C3253   1.483       .  S
C3153      C4362   1.413       .  A
C3154      C3244   1.499       .  S
C3154      C4361   1.417       .  A
C3154      C3155   1.418   1_565  A
C3155      C3205   1.492       .  S
C3155      C3156   1.420       .  A
C3156      C3193   1.486       .  S
C3157      C3316   1.497       .  S
C3157      N3158   1.360       .  A
C3157      N3162   1.365   1_545  A
N3158      C3159   1.357   1_545  A
C3159      C3241   1.490       .  S
C3159      N4368   1.358       .  A
N3160      C4367   1.356       .  A
N3160      C3161   1.360       .  A
C3161      C3580   1.484       .  S
C3161      N4370   1.363       .  A
N3162      C4369   1.365       .  A
C3163      C3292   1.492       .  S
C3163      N3164   1.358       .  A
C3163      N4376   1.362       .  A
N3164      C4373   1.354       .  A
C3165      C3229   1.482       .  S
C3165      N4372   1.353   1_545  A
C3165      N3166   1.361       .  A
N3166      C3167   1.365       .  A
C3167      C3484   1.486       .  S
C3167      N3168   1.362   1_545  A
N3168      C4371   1.358       .  A
C3169      C3304   1.485       .  S
C3169      N3170   1.361   1_655  A
C3169      N3174   1.358       .  A
C3171      C3553   1.498       .  S
C3171      N3172   1.356       .  A
C3173      C3196   1.487       .  S
C3173      N3174   1.355   1_455  A
C3175      C3505   1.484       .  S
C3175      N3176   1.358       .  A
C3175      N3180   1.361       .  A
N3176      C3177   1.358       .  A
C3177      C3208   1.482       .  S
C3177      N3178   1.358       .  A
N3178      C3179   1.357       .  A
C3179      C3265   1.476       .  S
C3179      N3180   1.360       .  A
C3181      C3277   1.485       .  S
C3181      N3182   1.354       .  A
C3181      N3186   1.360       .  A
N3182      C3183   1.351       .  A
C3183      C3256   1.471       .  S
N3184      C3185   1.358       .  A
C3185      C3520   1.478       .  S
C3187      C3589   1.476       .  S
C3187      N3188   1.357       .  A
C3187      N3192   1.364       .  A
N3188      C3189   1.354       .  A
C3189      C3217   1.481       .  S
C3189      N3190   1.356       .  A
N3190      C3191   1.361       .  A
C3191      C3328   1.499       .  S
C3191      N3192   1.365       .  A
C3193      C3198   1.409       .  A
C3194      C3195   1.399       .  A
C3194      H3199   1.086       .  S
C3195      C3196   1.417       .  A
C3195      C3202   1.444       .  S
C3197      C3198   1.396       .  A
C3197      H3200   1.082       .  S
C3198      C3201   1.443       .  S
C3201      N3203   1.157       .  T
C3202      N3204   1.157       .  T
C3205      C3206   1.403       .  A
C3205      C3210   1.411       .  A
C3206      C3207   1.399       .  A
C3206      H3211   1.087       .  S
C3207      C3208   1.413       .  A
C3207      C3214   1.444       .  S
C3208      C3209   1.405       .  A
C3209      C3210   1.401       .  A
C3209      H3212   1.087       .  S
C3210      C3213   1.442       .  S
C3213      N3215   1.157       .  T
C3214      N3216   1.157       .  T
C3217      C3218   1.405       .  A
C3217      C3222   1.415       .  A
C3218      C3219   1.399       .  A
C3218      H3223   1.085       .  S
C3219      C3220   1.408       .  A
C3219      C3226   1.443       .  S
C3220      C3221   1.402       .  A
C3221      C3222   1.401       .  A
C3221      H3224   1.085       .  S
C3222      C3225   1.443       .  S
C3225      N3227   1.157       .  T
C3226      N3228   1.157       .  T
C3229      C3230   1.404       .  A
C3229      C4442   1.415       .  A
C3230      C3231   1.404       .  A
C3230      H3235   1.084       .  S
C3231      C3232   1.414       .  A
C3231      C3238   1.444       .  S
C3232      C4441   1.399   1_545  A
C3233      C4440   1.402       .  A
C3233      C3234   1.401       .  A
C3233      H3236   1.083       .  S
C3234      C4437   1.414       .  A
C3234      C3237   1.444       .  S
C3237      N3239   1.157       .  T
C3238      N3240   1.157       .  T
C3241      C4450   1.406       .  A
C3241      C3246   1.415       .  A
C3242      C4449   1.404       .  A
C3242      C3243   1.396       .  A
C3242      H3247   1.085       .  S
C3243      C4452   1.410       .  A
C3243      C3250   1.442       .  S
C3244      C4451   1.412       .  A
C3244      C3245   1.404       .  A
C3245      C3246   1.404       .  A
C3245      H3248   1.084       .  S
C3246      C3249   1.443       .  S
C3249      N3251   1.157       .  T
C3250      N3252   1.157       .  T
C3253      C3254   1.402       .  A
C3254      C3255   1.397       .  A
C3254      H3259   1.084       .  S
C3255      C3256   1.411       .  A
C3255      C3262   1.444       .  S
C3257      C3258   1.396   1_655  A
C3257      H3260   1.084   1_655  S
C3258      C3261   1.442       .  S
C3261      N3263   1.157       .  T
C3262      N3264   1.157       .  T
C3265      C3266   1.405       .  A
C3265      C3270   1.408       .  A
C3266      C3267   1.404       .  A
C3266      H3271   1.084       .  S
C3267      C3268   1.413       .  A
C3267      C3274   1.443       .  S
C3268      C3269   1.406       .  A
C3269      C3270   1.398       .  A
C3269      H3272   1.084       .  S
C3270      C3273   1.444       .  S
C3273      N3275   1.157       .  T
C3274      N3276   1.157       .  T
C3277      C3278   1.406       .  A
C3277      C3282   1.416       .  A
C3278      C3279   1.403       .  A
C3278      H3283   1.084       .  S
C3279      C3280   1.419       .  A
C3279      C3286   1.445       .  S
C3280      C3281   1.405       .  A
C3281      C3282   1.391       .  A
C3281      H3284   1.084       .  S
C3282      C3285   1.446       .  S
C3285      N3287   1.157       .  T
C3286      N3288   1.158       .  T
C3289      C3290   1.407       .  A
C3289      C3294   1.423       .  A
C3290      C3291   1.399       .  A
C3290      H3295   1.084       .  S
C3291      C3292   1.414       .  A
C3291      C3298   1.445       .  S
C3292      C3293   1.405       .  A
C3293      C3294   1.409       .  A
C3293      H3296   1.085       .  S
C3294      C3297   1.444       .  S
C3297      N3299   1.158       .  T
C3298      N3300   1.157       .  T
C3301      C3302   1.405       .  A
C3301      C3306   1.419       .  A
C3302      C3303   1.396       .  A
C3302      H3307   1.086       .  S
C3303      C3304   1.414       .  A
C3303      C3310   1.445       .  S
C3304      C3305   1.404       .  A
C3305      C3306   1.405       .  A
C3305      H3308   1.086       .  S
C3306      C3309   1.445       .  S
C3309      N3311   1.158       .  T
C3310      N3312   1.157       .  T
C3313      C3314   1.406       .  A
C3313      C3318   1.421       .  A
C3314      C3315   1.400       .  A
C3314      H3319   1.084       .  S
C3315      C3316   1.418       .  A
C3315      C3322   1.445       .  S
C3316      C3317   1.408       .  A
C3317      C3318   1.409       .  A
C3317      H3320   1.084       .  S
C3318      C3321   1.445       .  S
C3321      N3323   1.158       .  T
C3322      N3324   1.158       .  T
C3325      C3326   1.409       .  A
C3325      C3330   1.418       .  A
C3326      C3327   1.411       .  A
C3326      H3331   1.086       .  S
C3327      C3328   1.418       .  A
C3327      C3334   1.443       .  S
C3328      C3329   1.406       .  A
C3329      C3330   1.398       .  A
C3329      H3332   1.086       .  S
C3330      C3333   1.446       .  S
C3333      N3335   1.157       .  T
C3334      N3336   1.157       .  T
C3337      C3338   1.407       .  A
C3337      C3342   1.416       .  A
C3338      C3339   1.403       .  A
C3338      H3343   1.085       .  S
C3339      C3340   1.415       .  A
C3339      C3346   1.441       .  S
C3340      C3341   1.406       .  A
C3341      C3342   1.402       .  A
C3341      H3344   1.085       .  S
C3342      C3345   1.444       .  S
C3345      N3347   1.157       .  T
C3346      N3348   1.156       .  T
C3349      C3350   1.402       .  A
C3349      C3354   1.418       .  A
C3350      C3351   1.394       .  A
C3350      H3355   1.086       .  S
C3351      C3352   1.423       .  A
C3351      C3358   1.447       .  S
C3352      C3353   1.408       .  A
C3353      C3354   1.408       .  A
C3353      H3356   1.085       .  S
C3354      C3357   1.444       .  S
C3357      N3359   1.157       .  T
C3358      N3360   1.158       .  T
C3361      C3362   1.413       .  A
C3361      C3366   1.426       .  A
C3362      C3363   1.409       .  A
C3362      H3367   1.083       .  S
C3363      C3364   1.411       .  A
C3363      C3370   1.443       .  S
C3364      C3365   1.397       .  A
C3365      C3366   1.392       .  A
C3365      H3368   1.085       .  S
C3366      C3369   1.446       .  S
C3369      N3371   1.157       .  T
C3370      N3372   1.157       .  T
C3373      C3374   1.411       .  A
C3373      C3378   1.417       .  A
C3374      C3375   1.410       .  A
C3374      H3379   1.084       .  S
C3375      C3376   1.418       .  A
C3375      C3382   1.443       .  S
C3376      C3377   1.409       .  A
C3377      C3378   1.396       .  A
C3377      H3380   1.084       .  S
C3378      C3381   1.446       .  S
C3381      N3383   1.158       .  T
C3382      N3384   1.157       .  T
C3385      C3386   1.410       .  A
C3385      C3390   1.426       .  A
C3386      C3387   1.409       .  A
C3386      H3391   1.085       .  S
C3387      C3388   1.416       .  A
C3387      C3394   1.444       .  S
C3388      C3389   1.399       .  A
C3389      C3390   1.395       .  A
C3389      H3392   1.085       .  S
C3390      C3393   1.446       .  S
C3393      N3395   1.158       .  T
C3394      N3396   1.157       .  T
C3397      C3398   1.402       .  A
C3397      C3402   1.410       .  A
C3398      C3399   1.396       .  A
C3398      H3403   1.083       .  S
C3399      C3400   1.413       .  A
C3399      C3406   1.443       .  S
C3400      C3401   1.410       .  A
C3401      C3402   1.403       .  A
C3401      H3404   1.085       .  S
C3402      C3405   1.444       .  S
C3405      N4615   1.157       .  T
C3406      N3408   1.157       .  T
N3407      C4613   1.157   1_545  T
C3409      C3410   1.401       .  A
C3409      C3414   1.408       .  A
C3410      C3411   1.398       .  A
C3410      H3415   1.086       .  S
C3411      C3412   1.411       .  A
C3411      C3418   1.443       .  S
C3412      C3413   1.407       .  A
C3413      C3414   1.400       .  A
C3413      H3416   1.086       .  S
C3414      C3417   1.443       .  S
C3417      N3419   1.157       .  T
C3418      N3420   1.157       .  T
C3421      C3422   1.400       .  A
C3422      C3423   1.400       .  A
C3422      H3427   1.088       .  S
C3423      C3424   1.413       .  A
C3423      C3430   1.443       .  S
C3425      C3426   1.400       .  A
C3425      H3428   1.085       .  S
C3426      C3429   1.443       .  S
C3429      N3431   1.157       .  T
C3430      N3432   1.157       .  T
C3433      C4642   1.407       .  A
C3433      C3438   1.409       .  A
C3434      C4641   1.401       .  A
C3434      C3435   1.399       .  A
C3434      H3439   1.086       .  S
C3435      C4644   1.414       .  A
C3435      C3442   1.442       .  S
C3436      C4643   1.416       .  A
C3436      C3437   1.408       .  A
C3437      C3438   1.400       .  A
C3437      H3440   1.080       .  S
C3438      C3441   1.442       .  S
C3441      N3443   1.157       .  T
C3442      N3444   1.157       .  T
C3445      C3446   1.400       .  A
C3446      C3447   1.399       .  A
C3446      H3451   1.084       .  S
C3447      C3448   1.415       .  A
C3447      C3454   1.444       .  S
C3449      C3450   1.399       .  A
C3449      H3452   1.084       .  S
C3450      C3453   1.443       .  S
C3453      N3455   1.157       .  T
C3454      N3456   1.157       .  T
C3457      C3458   1.402       .  A
C3457      C3462   1.412       .  A
C3458      C3459   1.399       .  A
C3458      H3463   1.086       .  S
C3459      C3460   1.410       .  A
C3459      C3466   1.444       .  S
C3460      C3461   1.398       .  A
C3461      C3462   1.396       .  A
C3461      H3464   1.084       .  S
C3462      C3465   1.444       .  S
C3465      N3467   1.157       .  T
C3466      N3468   1.157       .  T
C3469      C4678   1.399       .  A
C3469      C3474   1.410       .  A
C3470      C4677   1.400       .  A
C3470      C3471   1.400       .  A
C3470      H3475   1.083       .  S
C3471      C4680   1.418       .  A
C3471      C3478   1.444       .  S
C3472      C4679   1.414       .  A
C3472      C3473   1.404       .  A
C3473      C3474   1.401       .  A
C3473      H3476   1.085       .  S
C3474      C3477   1.444       .  S
C3477      N3479   1.157       .  T
C3478      N3480   1.157       .  T
C3481      C3482   1.406       .  A
C3481      C3486   1.418       .  A
C3482      C3483   1.402       .  A
C3482      H3487   1.084       .  S
C3483      C3484   1.414       .  A
C3483      C3490   1.444       .  S
C3484      C3485   1.403       .  A
C3485      C3486   1.402       .  A
C3485      H3488   1.083       .  S
C3486      C3489   1.445       .  S
C3489      N3491   1.158       .  T
C3490      N4700   1.157   1_545  T
N3492      C4698   1.157       .  T
C3493      C3494   1.407       .  A
C3493      C3498   1.419       .  A
C3494      C3495   1.409       .  A
C3494      H3499   1.086       .  S
C3495      C3496   1.421       .  A
C3495      C3502   1.443       .  S
C3496      C3497   1.406       .  A
C3497      C3498   1.400       .  A
C3497      H3500   1.086       .  S
C3498      C3501   1.445       .  S
C3501      N3503   1.157       .  T
C3502      N3504   1.157       .  T
C3505      C3506   1.404       .  A
C3505      C3510   1.412       .  A
C3506      C3507   1.402       .  A
C3506      H3511   1.085       .  S
C3507      C3508   1.417       .  A
C3507      C3514   1.445       .  S
C3508      C3509   1.408       .  A
C3509      C3510   1.403       .  A
C3509      H3512   1.084       .  S
C3510      C3513   1.444       .  S
C3513      N3515   1.157       .  T
C3514      N3516   1.158       .  T
C3517      C3518   1.406       .  A
C3517      C3522   1.413       .  A
C3518      C3519   1.400       .  A
C3518      H3523   1.086       .  S
C3519      C3520   1.409       .  A
C3519      C3526   1.445       .  S
C3520      C3521   1.405       .  A
C3521      C3522   1.402       .  A
C3521      H3524   1.086       .  S
C3522      C3525   1.445       .  S
C3525      N3527   1.158       .  T
C3529      C3530   1.402       .  A
C3529      C3534   1.410       .  A
C3530      C3531   1.396       .  A
C3530      H3535   1.085       .  S
C3531      C3532   1.413       .  A
C3531      C3538   1.443       .  S
C3532      C3533   1.409       .  A
C3533      C3534   1.404       .  A
C3533      H3536   1.084       .  S
C3534      C3537   1.442       .  S
C3537      N3539   1.157       .  T
C3538      N3540   1.156       .  T
C3541      C3542   1.404       .  A
C3541      C3546   1.411       .  A
C3542      C3543   1.394       .  A
C3542      H3547   1.085       .  S
C3543      C3544   1.414       .  A
C3543      C3550   1.445       .  S
C3544      C3545   1.409       .  A
C3545      C3546   1.402       .  A
C3545      H3548   1.086       .  S
C3546      C3549   1.442       .  S
C3549      N3551   1.157   1_655  T
C3550      N3552   1.157       .  T
C3553      C3554   1.408       .  A
C3553      C3558   1.412       .  A
C3554      C3555   1.397       .  A
C3554      H3559   1.085       .  S
C3555      C3556   1.419       .  A
C3555      C3562   1.446       .  S
C3556      C3557   1.414       .  A
C3557      C3558   1.410       .  A
C3557      H3560   1.083       .  S
C3558      C3561   1.442       .  S
C3562      N3564   1.158       .  T
C3565      C3566   1.405       .  A
C3565      C3570   1.415       .  A
C3566      C3567   1.409       .  A
C3566      H3571   1.084       .  S
C3567      C3568   1.415       .  A
C3567      C3574   1.443       .  S
C3568      C3569   1.402       .  A
C3569      C3570   1.401       .  A
C3569      H3572   1.085       .  S
C3570      C3573   1.441       .  S
C3573      N3575   1.156       .  T
C3574      N3576   1.157       .  T
C3577      C3578   1.409       .  A
C3577      C3582   1.418       .  A
C3578      C3579   1.403       .  A
C3578      H3583   1.084       .  S
C3579      C3580   1.411       .  A
C3579      C3586   1.444       .  S
C3580      C3581   1.403       .  A
C3581      C3582   1.401       .  A
C3581      H3584   1.084       .  S
C3582      C3585   1.445       .  S
C3585      N3587   1.157       .  T
C3586      N3588   1.157       .  T
C3589      C3590   1.405       .  A
C3589      C3594   1.408       .  A
C3590      C3591   1.403       .  A
C3590      H3595   1.081       .  S
C3591      C3592   1.411       .  A
C3591      C3598   1.445       .  S
C3592      C3593   1.408       .  A
C3593      C3594   1.402       .  A
C3593      H3596   1.083       .  S
C3594      C3597   1.444       .  S
C3597      N3599   1.157       .  T
C3598      N3600   1.157       .  T
C3601      C3602   1.402       .  A
C3601      C3606   1.417       .  A
C3602      C3603   1.397       .  A
C3602      H3607   1.087       .  S
C3603      C3604   1.413       .  A
C3603      C3610   1.445       .  S
C3604      C3605   1.406       .  A
C3605      C3606   1.410       .  A
C3605      H3608   1.086       .  S
C3606      C3609   1.443       .  S
C3609      N3611   1.157       .  T
C3613      C3614   1.404       .  A
C3613      C3618   1.415       .  A
C3614      C3615   1.408       .  A
C3614      H3619   1.084       .  S
C3615      C3616   1.416       .  A
C3615      C3622   1.444       .  S
C3616      C3617   1.402       .  A
C3617      C3618   1.398       .  A
C3617      H3620   1.085       .  S
C3618      C3621   1.444       .  S
C3621      N3623   1.157       .  T
C3622      N3624   1.157       .  T
Fe3625     O3641   2.081   1_556  S
Fe3625     O3631   2.061   1_556  S
Fe3625     O4242   2.071       .  S
Fe3625     O4234   2.082       .  S
Fe3625     O4240   1.979       .  S
Fe3626     O4233   2.078       .  S
Fe3626     O4237   2.074       .  S
Fe3626     O3637   2.062       .  S
Fe3626     O3642   2.075       .  S
Fe3626     O3636   1.970       .  S
Fe3627     O4249   2.070       .  S
Fe3627     O3632   2.060       .  S
Fe3627     O4243   2.072       .  S
Fe3627     O3628   2.054       .  S
Fe3627     O3636   1.972       .  S
O3628      C3635   1.267       .  A
O3629     Fe4230   2.081   1_554  S
O3629      C3643   1.271       .  A
O3630     Fe4229   2.064       .  S
O3630      C3635   1.269       .  A
O3631      C3634   1.267       .  A
O3632      C3644   1.268       .  A
O3633     Fe4230   2.054   1_554  S
O3633      C3646   1.267       .  A
C3634      O3639   1.270       .  A
C3634      C4220   1.494       .  S
C3635      C4196   1.475       .  S
O3636     Fe4229   1.976       .  S
O3637      C3640   1.267       .  A
O3638     Fe4229   2.075       .  S
O3638      C3640   1.269       .  A
O3639     Fe4231   2.076   1_554  S
C3640      C4181   1.485       .  S
O3641      C3646   1.274       .  A
O3642      C3644   1.271       .  A
C3643      O3645   1.270       .  A
C3643      C4172   1.490       .  S
C3644      C4160   1.497       .  S
O3645     Fe4231   2.063   1_554  S
C3646      C4208   1.498       .  S
Fe3647     O3663   2.056       .  S
Fe3647     O3653   2.074       .  S
Fe3647     O4264   2.061       .  S
Fe3647     O4256   2.053       .  S
Fe3647     O4262   1.970       .  S
Fe3648     O4255   2.067   1_554  S
Fe3648     O4259   2.081   1_554  S
Fe3648     O3659   2.072       .  S
Fe3648     O3664   2.077       .  S
Fe3648     O3658   1.981       .  S
Fe3649     O4271   2.075   1_554  S
Fe3649     O3654   2.074       .  S
Fe3649     O4265   2.071   1_554  S
Fe3649     O3650   2.072       .  S
Fe3649     O3658   1.980       .  S
O3650      C3657   1.272       .  A
O3651     Fe4252   2.070       .  S
O3651      C3665   1.271       .  A
O3652     Fe4251   2.068       .  S
O3652      C3657   1.271       .  A
O3653      C3656   1.270       .  A
O3654      C3666   1.271       .  A
O3655     Fe4252   2.080       .  S
O3655      C3668   1.273       .  A
C3656      O3661   1.270       .  A
C3656      C4121   1.483       .  S
C3657      C4148   1.492       .  S
O3658     Fe4251   1.978       .  S
O3659      C3662   1.267       .  A
O3660     Fe4251   2.074       .  S
O3660      C3662   1.272       .  A
O3661     Fe4253   2.060       .  S
C3662      C4100   1.501       .  S
O3663      C3668   1.268       .  A
O3664      C3666   1.272       .  A
C3665      O3667   1.272       .  A
C3665      C4112   1.493       .  S
C3666      C4136   1.491       .  S
O3667     Fe4253   2.079       .  S
C3668      C4085   1.489       .  S
C3669      C4073   1.479       .  S
C3669      C3670   1.411   1_545  A
C3670      C4064   1.485       .  S
C3670      C3671   1.409       .  A
C3671      C4049   1.484       .  S
C3672      C4037   1.491       .  S
C3673      C4013   1.487       .  S
C3673      C3674   1.411       .  A
C3675      C4001   1.499       .  S
C3675      N3680   1.354       .  A
N3676      C3677   1.367       .  A
C3677      C4097   1.498       .  S
C3677      N3678   1.359       .  A
C3679      C4076   1.472       .  S
C3679      N3680   1.350   1_545  A
C3681      C3989   1.501       .  S
C3681      N3682   1.356       .  A
C3683      C4040   1.480       .  S
C3683      N3684   1.355       .  A
N3684      C3685   1.362       .  A
C3685      C4205   1.500       .  S
C3685      N3686   1.364       .  A
C3687      C4133   1.487       .  S
C3687      N3688   1.356       .  A
C3687      N3692   1.367       .  A
N3688      C3689   1.354       .  A
C3689      C4016   1.475       .  S
C3689      N3690   1.353       .  A
N3690      C3691   1.357       .  A
C3691      C3977   1.505       .  S
C3691      N3692   1.367       .  A
C3693      C3965   1.499       .  S
C3693      N3694   1.366   1_655  A
C3693      N3698   1.356       .  A
C3695      C4169   1.488       .  S
C3695      N3696   1.360       .  A
C3697      C4028   1.483       .  S
C3697      N3698   1.351   1_455  A
C3699      C4217   1.497       .  S
C3699      N3700   1.362       .  A
C3699      N3704   1.369       .  A
N3700      C3701   1.356       .  A
C3701      C4061   1.478       .  S
C3701      N3702   1.348       .  A
N3702      C3703   1.353       .  A
C3703      C3956   1.493       .  S
C3703      N3704   1.365       .  A
C3705      C3944   1.502       .  S
C3705      N3706   1.361       .  A
C3707      C4052   1.476   1_455  S
C3707      N3708   1.353   1_455  A
N3708      C3709   1.356       .  A
C3709      C4145   1.490       .  S
C3709      N3710   1.363   1_655  A
Fe3711     O3727   2.080       .  S
Fe3711     O3717   2.053       .  S
Fe3711     O3724   2.066       .  S
Fe3711     O3716   2.073       .  S
Fe3711     O3722   1.966       .  S
Fe3712     O3715   2.069       .  S
Fe3712     O3719   2.064       .  S
Fe3712     O3723   2.073       .  S
Fe3712     O3728   2.060       .  S
Fe3712     O3722   1.971       .  S
Fe3713     O3731   2.069       .  S
Fe3713     O3718   2.063       .  S
Fe3713     O3725   2.067       .  S
Fe3713     O3714   2.082       .  S
Fe3713     O3722   1.975       .  S
O3714      C3721   1.273       .  A
O3715      C3729   1.269       .  A
O3716      C3721   1.274       .  A
O3717      C3720   1.267       .  A
O3718      C3730   1.268       .  A
O3719      C3732   1.271       .  A
C3720      O3725   1.267       .  A
C3720      C3968   1.485       .  S
C3721      C3905   1.501       .  S
O3723      C3726   1.270       .  A
O3724      C3726   1.267       .  A
C3726      C3917   1.500       .  S
O3727      C3732   1.272       .  A
O3728      C3730   1.268       .  A
C3729      O3731   1.272       .  A
C3729      C3953   1.495       .  S
C3730      C3929   1.474       .  S
C3732      C3992   1.494       .  S
Fe3733     O3749   2.072       .  S
Fe3733     O3739   2.066       .  S
Fe3733     O3746   2.065       .  S
Fe3733     O3738   2.079       .  S
Fe3733     O3744   1.965       .  S
Fe3734     O3737   2.064       .  S
Fe3734     O3741   2.067       .  S
Fe3734     O3745   2.076       .  S
Fe3734     O3750   2.068       .  S
Fe3734     O3744   1.966       .  S
Fe3735     O3753   2.066       .  S
Fe3735     O3740   2.081       .  S
Fe3735     O3747   2.077       .  S
Fe3735     O3736   2.062       .  S
Fe3735     O3744   1.970       .  S
O3736      C3743   1.271       .  A
O3737      C3751   1.271       .  A
O3738      C3743   1.273       .  A
O3739      C3742   1.268       .  A
O3740      C3752   1.271       .  A
O3741      C3754   1.271       .  A
C3742      O3747   1.271       .  A
C3742      C3884   1.497       .  S
C3743      C3941   1.491       .  S
O3745      C3748   1.270       .  A
O3746      C3748   1.271       .  A
C3748      C3980   1.491       .  S
O3749      C3754   1.271       .  A
O3750      C3752   1.272       .  A
C3751      O3753   1.268       .  A
C3751      C3893   1.493       .  S
C3752      C4004   1.497       .  S
C3754      C3872   1.495       .  S
C3755      C3836   1.493       .  S
C3756      C3824   1.474       .  S
C3757      C3857   1.492       .  S
C3758      C3848   1.496       .  S
C3758      C3759   1.420       .  A
C3759      C3809   1.498       .  S
C3759      C3760   1.424       .  A
C3760      C3797   1.489       .  S
C3761      C3920   1.495       .  S
C3761      N3762   1.358       .  A
C3761      N3766   1.363       .  A
N3762      C3763   1.356       .  A
C3763      C3845   1.484       .  S
N3764      C3765   1.362       .  A
C3765      C4184   1.479       .  S
C3767      C3896   1.487       .  S
C3767      N3768   1.352       .  A
C3769      C3833   1.481       .  S
C3769      N3770   1.360       .  A
N3770      C3771   1.363       .  A
C3771      C4088   1.485       .  S
C3771      N3772   1.360       .  A
C3773      C3908   1.492       .  S
C3773      N3774   1.363   1_655  A
C3773      N3778   1.359       .  A
C3775      C4157   1.492       .  S
C3775      N3776   1.359       .  A
C3777      C3800   1.483       .  S
C3777      N3778   1.355   1_455  A
C3779      C4109   1.485       .  S
C3779      N3780   1.359       .  A
C3779      N3784   1.363       .  A
N3780      C3781   1.357       .  A
C3781      C3812   1.489       .  S
C3781      N3782   1.357       .  A
N3782      C3783   1.359       .  A
C3783      C3869   1.495       .  S
C3783      N3784   1.363       .  A
C3785      C3881   1.491       .  S
C3785      N3786   1.355       .  A
C3785      N3790   1.364       .  A
N3786      C3787   1.354       .  A
C3787      C3860   1.484       .  S
N3788      C3789   1.360       .  A
C3789      C4124   1.475       .  S
C3791      C4193   1.467       .  S
C3791      N3792   1.353       .  A
C3791      N3796   1.362       .  A
N3792      C3793   1.350       .  A
C3793      C3821   1.464       .  S
C3793      N3794   1.352       .  A
N3794      C3795   1.356       .  A
C3795      C3932   1.480       .  S
C3795      N3796   1.362       .  A
C3797      C3802   1.410       .  A
C3798      C3799   1.399       .  A
C3798      H3803   1.081       .  S
C3799      C3800   1.416       .  A
C3799      C3806   1.444       .  S
C3801      C3802   1.399       .  A
C3801      H3804   1.089       .  S
C3802      C3805   1.443       .  S
C3805      N3807   1.157       .  T
C3806      N3808   1.157       .  T
C3809      C3810   1.404       .  A
C3809      C3814   1.412       .  A
C3810      C3811   1.400       .  A
C3810      H3815   1.083       .  S
C3811      C3812   1.416       .  A
C3811      C3818   1.444       .  S
C3812      C3813   1.407       .  A
C3813      C3814   1.401       .  A
C3813      H3816   1.084       .  S
C3814      C3817   1.443       .  S
C3817      N3819   1.157       .  T
C3818      N3820   1.157       .  T
C3821      C3822   1.402       .  A
C3821      C3826   1.411       .  A
C3822      C3823   1.393       .  A
C3822      H3827   1.084       .  S
C3823      C3824   1.407       .  A
C3823      C3830   1.444       .  S
C3824      C3825   1.399       .  A
C3825      C3826   1.394       .  A
C3825      H3828   1.084       .  S
C3826      C3829   1.444       .  S
C3829      N3831   1.157       .  T
C3830      N3832   1.157       .  T
C3833      C3834   1.402       .  A
C3834      C3835   1.400       .  A
C3834      H3839   1.084       .  S
C3835      C3836   1.412       .  A
C3835      C3842   1.443       .  S
C3837      C3838   1.394       .  A
C3837      H3840   1.085   1_545  S
C3838      C3841   1.445   1_545  S
C3841      N3843   1.157       .  T
C3842      N3844   1.157       .  T
C3845      C3850   1.414       .  A
C3846      C3847   1.401       .  A
C3846      H3851   1.086       .  S
C3847      C3854   1.442       .  S
C3848      C3849   1.404       .  A
C3849      C3850   1.401       .  A
C3849      H3852   1.084       .  S
C3850      C3853   1.444       .  S
C3853      N3855   1.157       .  T
C3854      N3856   1.157       .  T
C3857      C3858   1.405       .  A
C3858      C3859   1.404       .  A
C3858      H3863   1.085       .  S
C3859      C3860   1.413       .  A
C3859      C3866   1.443       .  S
C3861      C3862   1.400       .  A
C3861      H3864   1.085   1_655  S
C3862      C3865   1.442   1_655  S
C3865      N3867   1.157       .  T
C3866      N3868   1.157       .  T
C3869      C3870   1.406       .  A
C3869      C3874   1.413       .  A
C3870      C3871   1.401       .  A
C3870      H3875   1.083       .  S
C3871      C3872   1.417       .  A
C3871      C3878   1.444       .  S
C3872      C3873   1.407       .  A
C3873      C3874   1.403       .  A
C3873      H3876   1.083       .  S
C3874      C3877   1.437       .  S
C3877      N3879   1.154       .  T
C3878      N3880   1.157       .  T
C3881      C3882   1.403       .  A
C3881      C3886   1.417       .  A
C3882      C3883   1.405       .  A
C3882      H3887   1.083       .  S
C3883      C3884   1.420       .  A
C3883      C3890   1.444       .  S
C3884      C3885   1.407       .  A
C3885      C3886   1.402       .  A
C3885      H3888   1.084       .  S
C3886      C3889   1.446       .  S
C3889      N3891   1.158       .  T
C3890      N3892   1.157       .  T
C3893      C3894   1.406       .  A
C3893      C3898   1.419       .  A
C3894      C3895   1.394       .  A
C3894      H3899   1.085       .  S
C3895      C3896   1.416       .  A
C3895      C3902   1.447       .  S
C3896      C3897   1.406       .  A
C3897      C3898   1.405       .  A
C3897      H3900   1.086       .  S
C3898      C3901   1.444       .  S
C3901      N3903   1.157       .  T
C3902      N3904   1.158       .  T
C3905      C3906   1.408       .  A
C3905      C3910   1.421       .  A
C3906      C3907   1.399       .  A
C3906      H3911   1.083       .  S
C3907      C3908   1.415       .  A
C3907      C3914   1.446       .  S
C3908      C3909   1.407       .  A
C3909      C3910   1.409       .  A
C3909      H3912   1.083       .  S
C3910      C3913   1.444       .  S
C3913      N3915   1.157       .  T
C3914      N3916   1.157       .  T
C3917      C3918   1.408       .  A
C3917      C3922   1.420       .  A
C3918      C3919   1.401       .  A
C3918      H3923   1.085       .  S
C3919      C3920   1.418       .  A
C3919      C3926   1.446       .  S
C3920      C3921   1.405       .  A
C3921      C3922   1.404       .  A
C3921      H3924   1.085       .  S
C3922      C3925   1.444       .  S
C3925      N3927   1.157       .  T
C3926      N3928   1.158       .  T
C3929      C3930   1.401       .  A
C3929      C3934   1.412       .  A
C3930      C3931   1.401       .  A
C3930      H3935   1.086       .  S
C3931      C3932   1.413       .  A
C3931      C3938   1.440       .  S
C3932      C3933   1.405       .  A
C3933      C3934   1.395       .  A
C3933      H3936   1.086       .  S
C3934      C3937   1.446       .  S
C3937      N3939   1.158       .  T
C3938      N3940   1.156       .  T
C3941      C3942   1.409       .  A
C3941      C3946   1.413       .  A
C3942      C3943   1.408       .  A
C3942      H3947   1.085       .  S
C3943      C3944   1.415       .  A
C3943      C3950   1.440       .  S
C3944      C3945   1.411       .  A
C3945      C3946   1.396       .  A
C3945      H3948   1.085       .  S
C3946      C3949   1.446       .  S
C3949      N3951   1.157       .  T
C3950      N3952   1.156       .  T
C3953      C3954   1.403       .  A
C3953      C3958   1.421       .  A
C3954      C3955   1.397       .  A
C3954      H3959   1.084       .  S
C3955      C3956   1.421       .  A
C3955      C3962   1.446       .  S
C3956      C3957   1.405       .  A
C3957      C3958   1.406       .  A
C3957      H3960   1.084       .  S
C3958      C3961   1.444       .  S
C3961      N3963   1.157       .  T
C3962      N3964   1.158       .  T
C3965      C3966   1.411       .  A
C3965      C3970   1.424       .  A
C3966      C3967   1.407       .  A
C3966      H3971   1.085       .  S
C3967      C3968   1.413       .  A
C3967      C3974   1.444       .  S
C3968      C3969   1.399       .  A
C3969      C3970   1.394       .  A
C3969      H3972   1.086       .  S
C3970      C3973   1.446       .  S
C3973      N3975   1.158       .  T
C3974      N3976   1.157       .  T
C3977      C3978   1.411       .  A
C3977      C3982   1.425       .  A
C3978      C3979   1.409       .  A
C3978      H3983   1.085       .  S
C3979      C3980   1.414       .  A
C3979      C3986   1.444       .  S
C3980      C3981   1.401       .  A
C3981      C3982   1.398       .  A
C3981      H3984   1.086       .  S
C3982      C3985   1.445       .  S
C3985      N3987   1.157       .  T
C3986      N3988   1.157       .  T
C3989      C3990   1.408       .  A
C3989      C3994   1.424       .  A
C3990      C3991   1.410       .  A
C3990      H3995   1.086       .  S
C3991      C3992   1.416       .  A
C3991      C3998   1.444       .  S
C3992      C3993   1.401       .  A
C3993      C3994   1.396       .  A
C3993      H3996   1.086       .  S
C3994      C3997   1.446       .  S
C3997      N3999   1.157       .  T
C3998      N4000   1.157       .  T
C4001      C4002   1.405       .  A
C4001      C4006   1.424       .  A
C4002      C4003   1.404       .  A
C4002      H4007   1.084       .  S
C4003      C4004   1.418       .  A
C4003      C4010   1.443       .  S
C4004      C4005   1.404       .  A
C4005      C4006   1.400       .  A
C4005      H4008   1.086       .  S
C4006      C4009   1.447       .  S
C4010      N4012   1.157       .  T
C4013      C4014   1.402       .  A
C4013      C4018   1.409       .  A
C4014      C4015   1.398       .  A
C4014      H4019   1.087       .  S
C4015      C4016   1.411       .  A
C4015      C4022   1.443       .  S
C4016      C4017   1.404       .  A
C4017      C4018   1.398       .  A
C4017      H4020   1.087       .  S
C4018      C4021   1.442       .  S
C4021      N4023   1.157       .  T
C4022      N4024   1.157       .  T
C4025      C4026   1.402       .  A
C4026      C4027   1.404       .  A
C4026      H4031   1.084       .  S
C4027      C4028   1.415       .  A
C4027      C4034   1.444       .  S
C4029      C4030   1.395       .  A
C4029      H4032   1.085       .  S
C4030      C4033   1.443       .  S
C4033      N4035   1.157       .  T
C4034      N4036   1.157       .  T
C4037      C4042   1.408       .  A
C4038      C4039   1.398       .  A
C4038      H4043   1.084       .  S
C4039      C4046   1.443       .  S
C4040      C4041   1.407       .  A
C4041      C4042   1.401       .  A
C4041      H4044   1.084       .  S
C4042      C4045   1.443   1_565  S
C4045      N4047   1.157       .  T
C4046      N4048   1.157       .  T
C4049      C4050   1.400       .  A
C4050      C4051   1.399       .  A
C4050      H4055   1.083       .  S
C4051      C4052   1.415       .  A
C4051      C4058   1.444       .  S
C4053      C4054   1.399       .  A
C4053      H4056   1.085       .  S
C4054      C4057   1.443       .  S
C4057      N4059   1.157       .  T
C4058      N4060   1.157       .  T
C4061      C4062   1.404       .  A
C4061      C4066   1.415       .  A
C4062      C4063   1.400       .  A
C4062      H4067   1.084       .  S
C4063      C4064   1.409       .  A
C4063      C4070   1.443       .  S
C4064      C4065   1.400       .  A
C4065      C4066   1.398       .  A
C4065      H4068   1.084       .  S
C4066      C4069   1.444       .  S
C4069      N4071   1.157       .  T
C4070      N4072   1.157       .  T
C4073      C4078   1.407       .  A
C4074      C4075   1.397       .  A
C4074      H4079   1.083       .  S
C4075      C4082   1.443       .  S
C4076      C4077   1.403       .  A
C4077      C4078   1.395       .  A
C4077      H4080   1.086       .  S
C4078      C4081   1.444   1_545  S
C4081      N4083   1.157       .  T
C4082      N4084   1.157       .  T
C4085      C4086   1.406       .  A
C4085      C4090   1.417       .  A
C4086      C4087   1.400       .  A
C4086      H4091   1.086       .  S
C4087      C4088   1.414       .  A
C4087      C4094   1.444       .  S
C4088      C4089   1.403       .  A
C4089      C4090   1.401       .  A
C4089      H4092   1.084       .  S
C4090      C4093   1.445       .  S
C4093      N4095   1.158       .  T
C4097      C4098   1.408       .  A
C4097      C4102   1.419       .  A
C4098      C4099   1.411       .  A
C4098      H4103   1.085       .  S
C4099      C4100   1.422       .  A
C4099      C4106   1.444       .  S
C4100      C4101   1.404       .  A
C4101      C4102   1.397       .  A
C4101      H4104   1.085       .  S
C4102      C4105   1.444       .  S
C4105      N4107   1.157       .  T
C4106      N4108   1.158       .  T
C4109      C4110   1.404       .  A
C4109      C4114   1.411       .  A
C4110      C4111   1.402       .  A
C4110      H4115   1.084       .  S
C4111      C4112   1.416       .  A
C4111      C4118   1.445       .  S
C4112      C4113   1.409       .  A
C4113      C4114   1.405       .  A
C4113      H4116   1.084       .  S
C4114      C4117   1.444       .  S
C4117      N4119   1.157       .  T
C4118      N4120   1.157       .  T
C4121      C4122   1.408       .  A
C4121      C4126   1.412       .  A
C4122      C4123   1.404       .  A
C4122      H4127   1.084       .  S
C4123      C4124   1.411       .  A
C4123      C4130   1.445       .  S
C4124      C4125   1.402       .  A
C4125      C4126   1.397       .  A
C4125      H4128   1.084       .  S
C4126      C4129   1.443       .  S
C4129      N4131   1.157       .  T
C4133      C4134   1.404       .  A
C4133      C4138   1.410       .  A
C4134      C4135   1.402       .  A
C4134      H4139   1.083       .  S
C4135      C4136   1.414       .  A
C4135      C4142   1.445       .  S
C4136      C4137   1.409       .  A
C4137      C4138   1.406       .  A
C4137      H4140   1.085       .  S
C4138      C4141   1.442       .  S
C4141      N4143   1.156       .  T
C4142      N4144   1.157       .  T
C4145      C4146   1.404       .  A
C4145      C4150   1.412       .  A
C4146      C4147   1.397       .  A
C4146      H4151   1.089       .  S
C4147      C4148   1.415       .  A
C4147      C4154   1.446       .  S
C4148      C4149   1.409       .  A
C4149      C4150   1.405       .  A
C4149      H4152   1.088       .  S
C4150      C4153   1.441       .  S
C4153      N4155   1.156   1_655  T
C4154      N4156   1.158       .  T
C4157      C4158   1.406       .  A
C4157      C4162   1.414       .  A
C4158      C4159   1.398       .  A
C4158      H4163   1.085       .  S
C4159      C4160   1.418       .  A
C4159      C4166   1.446       .  S
C4160      C4161   1.411       .  A
C4161      C4162   1.404       .  A
C4161      H4164   1.084       .  S
C4162      C4165   1.443       .  S
C4166      N4168   1.158       .  T
C4169      C4170   1.407       .  A
C4169      C4174   1.413       .  A
C4170      C4171   1.407       .  A
C4170      H4175   1.086       .  S
C4171      C4172   1.416       .  A
C4171      C4178   1.444       .  S
C4172      C4173   1.405       .  A
C4173      C4174   1.399       .  A
C4173      H4176   1.087       .  S
C4174      C4177   1.444       .  S
C4177      N4179   1.157       .  T
C4178      N4180   1.157       .  T
C4181      C4182   1.406       .  A
C4181      C4186   1.413       .  A
C4182      C4183   1.402       .  A
C4182      H4187   1.084       .  S
C4183      C4184   1.411       .  A
C4183      C4190   1.444       .  S
C4184      C4185   1.402       .  A
C4185      C4186   1.402       .  A
C4185      H4188   1.082       .  S
C4186      C4189   1.445       .  S
C4189      N4191   1.157       .  T
C4190      N4192   1.157   1_565  T
C4193      C4194   1.404       .  A
C4193      C4198   1.406       .  A
C4194      C4195   1.399       .  A
C4194      H4199   1.084       .  S
C4195      C4196   1.411       .  A
C4195      C4202   1.445       .  S
C4196      C4197   1.405       .  A
C4197      C4198   1.396       .  A
C4197      H4200   1.084       .  S
C4198      C4201   1.443       .  S
C4201      N4203   1.157       .  T
C4202      N4204   1.157       .  T
C4205      C4206   1.406       .  A
C4205      C4210   1.418       .  A
C4206      C4207   1.397       .  A
C4206      H4211   1.083       .  S
C4207      C4208   1.420       .  A
C4207      C4214   1.446       .  S
C4208      C4209   1.407       .  A
C4209      C4210   1.405       .  A
C4209      H4212   1.084       .  S
C4210      C4213   1.440       .  S
C4213      N4215   1.156       .  T
C4214      N4820   1.158       .  T
N4216      C4818   1.157       .  T
C4217      C4218   1.408       .  A
C4217      C4222   1.419       .  A
C4218      C4219   1.408       .  A
C4218      H4223   1.084       .  S
C4219      C4220   1.415       .  A
C4219      C4226   1.444       .  S
C4220      C4221   1.404       .  A
C4221      C4222   1.400       .  A
C4221      H4224   1.085       .  S
C4222      C4225   1.444       .  S
C4225      N4227   1.157       .  T
C4226      N4228   1.158       .  T
Fe4229     O4245   2.072       .  S
Fe4229     O4235   2.075       .  S
Fe4230     O4241   2.078       .  S
Fe4230     O4246   2.058       .  S
Fe4230     O4240   1.978       .  S
Fe4231     O4236   2.081       .  S
Fe4231     O4232   2.069       .  S
Fe4231     O4240   1.976       .  S
O4232      C4239   1.271       .  A
O4233      C4247   1.271       .  A
O4234      C4239   1.275       .  A
O4235      C4238   1.271       .  A
O4236      C4248   1.273       .  A
O4237      C4250   1.274       .  A
C4238      O4243   1.272       .  A
C4238      C4824   1.487       .  S
C4239      C4800   1.485       .  S
O4241      C4244   1.271       .  A
O4242      C4244   1.268       .  A
C4244      C4785   1.493       .  S
O4245      C4250   1.271       .  A
O4246      C4248   1.267       .  A
C4247      O4249   1.271       .  A
C4247      C4776   1.492       .  S
C4248      C4764   1.500       .  S
C4250      C4812   1.489       .  S
Fe4251     O4267   2.068   1_554  S
Fe4251     O4257   2.087   1_554  S
Fe4252     O4263   2.068       .  S
Fe4252     O4268   2.078       .  S
Fe4252     O4262   1.972       .  S
Fe4253     O4258   2.060       .  S
Fe4253     O4254   2.067       .  S
Fe4253     O4262   1.968       .  S
O4254      C4261   1.270       .  A
O4255      C4269   1.270       .  A
O4256      C4261   1.267       .  A
O4257      C4260   1.271       .  A
O4258      C4270   1.268       .  A
O4259      C4272   1.274       .  A
C4260      O4265   1.270       .  A
C4260      C4725   1.496       .  S
C4261      C4752   1.480       .  S
O4263      C4266   1.268       .  A
O4264      C4266   1.270       .  A
C4266      C4704   1.488       .  S
O4267      C4272   1.271       .  A
O4268      C4270   1.272       .  A
C4269      O4271   1.271       .  A
C4269      C4716   1.495       .  S
C4270      C4740   1.491       .  S
C4272      C4689   1.490       .  S
C4273      C4677   1.494   1_565  S
C4273      C4274   1.416       .  A
C4274      C4668   1.482       .  S
C4274      C4275   1.412       .  A
C4275      C4653   1.490       .  S
C4276      C4641   1.490       .  S
C4277      C4617   1.486       .  S
C4277      C4278   1.415       .  A
C4279      C4605   1.488       .  S
C4279      N4284   1.363       .  A
N4280      C4281   1.362       .  A
C4281      C4701   1.486       .  S
C4281      N4282   1.357       .  A
C4283      C4680   1.491       .  S
C4283      N4284   1.360   1_545  A
C4285      C4593   1.484       .  S
C4285      N4286   1.356       .  A
C4287      C4644   1.484       .  S
C4287      N4288   1.353       .  A
N4288      C4289   1.363       .  A
C4289      C4809   1.491       .  S
C4289      N4290   1.368       .  A
C4291      C4737   1.491       .  S
C4291      N4292   1.356       .  A
C4291      N4296   1.364       .  A
N4292      C4293   1.353       .  A
C4293      C4620   1.475       .  S
C4293      N4294   1.354       .  A
N4294      C4295   1.358       .  A
C4295      C4581   1.488       .  S
C4295      N4296   1.364       .  A
C4297      C4569   1.496       .  S
C4297      N4298   1.367       .  A
C4297      N4302   1.353       .  A
C4299      C4773   1.492       .  S
C4299      N4300   1.360       .  A
C4301      C4632   1.472       .  S
C4301      N4302   1.348   1_455  A
C4303      C4821   1.492       .  S
C4303      N4304   1.360       .  A
C4303      N4308   1.370       .  A
N4304      C4305   1.354       .  A
C4305      C4665   1.478       .  S
C4305      N4306   1.348       .  A
N4306      C4307   1.353       .  A
C4307      C4560   1.495       .  S
C4307      N4308   1.368       .  A
C4309      C4548   1.489       .  S
C4309      N4310   1.360       .  A
C4311      C4656   1.479       .  S
C4311      N4312   1.354   1_455  A
N4312      C4313   1.356       .  A
C4313      C4749   1.479       .  S
C4313      N4314   1.360   1_655  A
Fe4315     O4331   2.059       .  S
Fe4315     O4321   2.046       .  S
Fe4315     O4328   2.056       .  S
Fe4315     O4320   2.053       .  S
Fe4315     O4326   1.967       .  S
Fe4316     O4319   2.080       .  S
Fe4316     O4323   2.083       .  S
Fe4316     O4327   2.064       .  S
Fe4316     O4332   2.083       .  S
Fe4316     O4326   1.967       .  S
Fe4317     O4335   2.058       .  S
Fe4317     O4322   2.058       .  S
Fe4317     O4329   2.066       .  S
Fe4317     O4318   2.073       .  S
Fe4317     O4326   1.969       .  S
O4318      C4325   1.270       .  A
O4319      C4333   1.271       .  A
O4320      C4325   1.270       .  A
O4321      C4324   1.266       .  A
O4322      C4334   1.269       .  A
O4323      C4336   1.274       .  A
C4324      O4329   1.267       .  A
C4324      C4572   1.487       .  S
C4325      C4509   1.490       .  S
O4327      C4330   1.271       .  A
O4328      C4330   1.265       .  A
C4330      C4521   1.490       .  S
O4331      C4336   1.267       .  A
O4332      C4334   1.271       .  A
C4333      O4335   1.271       .  A
C4333      C4557   1.498       .  S
C4334      C4533   1.480       .  S
C4336      C4596   1.479       .  S
Fe4337     O4353   2.061       .  S
Fe4337     O4343   2.084       .  S
Fe4337     O4350   2.084       .  S
Fe4337     O4342   2.064       .  S
Fe4337     O4348   1.982       .  S
Fe4338     O4341   2.054       .  S
Fe4338     O4345   2.070       .  S
Fe4338     O4349   2.053       .  S
Fe4338     O4354   2.072       .  S
Fe4338     O4348   1.975       .  S
Fe4339     O4357   2.079       .  S
Fe4339     O4344   2.072       .  S
Fe4339     O4351   2.060       .  S
Fe4339     O4340   2.082       .  S
Fe4339     O4348   1.979       .  S
O4340      C4347   1.273       .  A
O4341      C4355   1.269       .  A
O4342      C4347   1.270       .  A
O4343      C4346   1.271       .  A
O4344      C4356   1.269       .  A
O4345      C4358   1.269       .  A
C4346      O4351   1.269       .  A
C4346      C4488   1.500       .  S
C4347      C4545   1.492       .  S
O4349      C4352   1.266       .  A
O4350      C4352   1.274       .  A
C4352      C4584   1.494       .  S
O4353      C4358   1.268       .  A
O4354      C4356   1.270       .  A
C4355      O4357   1.271       .  A
C4355      C4497   1.496       .  S
C4356      C4608   1.489       .  S
C4358      C4476   1.493       .  S
C4359      C4440   1.494       .  S
C4360      C4428   1.489       .  S
C4361      C4461   1.489       .  S
C4362      C4452   1.489       .  S
C4362      C4363   1.415       .  A
C4363      C4413   1.491       .  S
C4363      C4364   1.418       .  A
C4364      C4401   1.488       .  S
C4365      C4524   1.490       .  S
C4365      N4366   1.353       .  A
C4365      N4370   1.362       .  A
N4366      C4367   1.351       .  A
C4367      C4449   1.478       .  S
N4368      C4369   1.360       .  A
C4369      C4788   1.486       .  S
C4371      C4500   1.489       .  S
C4371      N4372   1.353       .  A
C4373      C4437   1.483       .  S
C4373      N4374   1.358       .  A
N4374      C4375   1.361       .  A
C4375      C4692   1.484       .  S
C4375      N4376   1.365       .  A
C4377      C4512   1.487       .  S
C4377      N4378   1.362   1_655  A
C4377      N4382   1.352       .  A
C4379      C4761   1.495       .  S
C4379      N4380   1.355       .  A
C4381      C4404   1.470       .  S
C4381      N4382   1.348   1_455  A
C4383      C4713   1.489       .  S
C4383      N4384   1.363       .  A
C4383      N4388   1.363       .  A
N4384      C4385   1.359       .  A
C4385      C4416   1.483       .  S
C4385      N4386   1.354       .  A
N4386      C4387   1.352       .  A
C4387      C4473   1.479       .  S
C4387      N4388   1.361       .  A
C4389      C4485   1.485       .  S
C4389      N4390   1.356       .  A
C4389      N4394   1.359       .  A
N4390      C4391   1.354       .  A
C4391      C4464   1.482       .  S
N4392      C4393   1.363       .  A
C4393      C4728   1.490       .  S
C4395      C4797   1.481       .  S
C4395      N4396   1.357       .  A
C4395      N4400   1.366       .  A
N4396      C4397   1.356       .  A
C4397      C4425   1.481       .  S
C4397      N4398   1.354       .  A
N4398      C4399   1.358       .  A
C4399      C4536   1.493       .  S
C4399      N4400   1.366       .  A
C4401      C4406   1.409       .  A
C4402      C4403   1.393       .  A
C4402      H4407   1.088       .  S
C4403      C4404   1.412   1_655  A
C4403      C4410   1.445       .  S
C4405      C4406   1.397       .  A
C4405      H4408   1.087       .  S
C4406      C4409   1.442       .  S
C4409      N4411   1.157       .  T
C4410      N4412   1.157       .  T
C4413      C4414   1.406       .  A
C4413      C4418   1.409       .  A
C4414      C4415   1.401       .  A
C4414      H4419   1.084       .  S
C4415      C4416   1.413       .  A
C4415      C4422   1.444       .  S
C4416      C4417   1.407       .  A
C4417      C4418   1.396       .  A
C4417      H4420   1.084       .  S
C4418      C4421   1.443       .  S
C4421      N4423   1.157       .  T
C4422      N4424   1.157       .  T
C4425      C4426   1.406       .  A
C4425      C4430   1.413       .  A
C4426      C4427   1.401       .  A
C4426      H4431   1.084       .  S
C4427      C4428   1.409       .  A
C4427      C4434   1.444       .  S
C4428      C4429   1.402       .  A
C4429      C4430   1.399       .  A
C4429      H4432   1.084       .  S
C4430      C4433   1.444       .  S
C4433      N4435   1.157       .  T
C4434      N4436   1.157       .  T
C4437      C4438   1.404       .  A
C4438      C4439   1.402       .  A
C4438      H4443   1.084       .  S
C4439      C4440   1.410       .  A
C4439      C4446   1.443       .  S
C4441      C4442   1.397   1_565  A
C4441      H4444   1.084       .  S
C4442      C4445   1.444   1_545  S
C4445      N4447   1.157       .  T
C4446      N4448   1.157       .  T
C4449      C4454   1.412       .  A
C4450      C4451   1.403       .  A
C4450      H4455   1.084   1_565  S
C4451      C4458   1.442   1_565  S
C4452      C4453   1.403       .  A
C4453      C4454   1.399       .  A
C4453      H4456   1.084       .  S
C4454      C4457   1.443       .  S
C4457      N4459   1.157       .  T
C4458      N4460   1.157       .  T
C4461      C4462   1.403       .  A
C4462      C4463   1.400       .  A
C4462      H4467   1.085       .  S
C4463      C4464   1.412       .  A
C4463      C4470   1.443       .  S
C4465      C4466   1.404       .  A
C4465      H4468   1.085       .  S
C4466      C4469   1.442       .  S
C4469      N4471   1.157       .  T
C4470      N4472   1.157       .  T
C4473      C4474   1.403       .  A
C4473      C4478   1.408       .  A
C4474      C4475   1.400       .  A
C4474      H4479   1.086       .  S
C4475      C4476   1.417       .  A
C4475      C4482   1.442       .  S
C4476      C4477   1.409       .  A
C4477      C4478   1.402       .  A
C4477      H4480   1.085       .  S
C4478      C4481   1.441       .  S
C4481      N4483   1.156       .  T
C4482      N4484   1.156       .  T
C4485      C4486   1.403       .  A
C4485      C4490   1.411       .  A
C4486      C4487   1.405       .  A
C4486      H4491   1.084       .  S
C4487      C4488   1.421       .  A
C4487      C4494   1.443       .  S
C4488      C4489   1.411       .  A
C4489      C4490   1.399       .  A
C4489      H4492   1.084       .  S
C4490      C4493   1.446       .  S
C4493      N4495   1.158       .  T
C4494      N4496   1.157       .  T
C4497      C4498   1.408       .  A
C4497      C4502   1.418       .  A
C4498      C4499   1.397       .  A
C4498      H4503   1.085       .  S
C4499      C4500   1.416       .  A
C4499      C4506   1.446       .  S
C4500      C4501   1.405       .  A
C4501      C4502   1.403       .  A
C4501      H4504   1.085       .  S
C4502      C4505   1.443       .  S
C4505      N4507   1.157       .  T
C4506      N4508   1.157       .  T
C4509      C4510   1.404       .  A
C4509      C4514   1.418       .  A
C4510      C4511   1.393       .  A
C4510      H4515   1.086       .  S
C4511      C4512   1.420       .  A
C4511      C4518   1.447       .  S
C4512      C4513   1.405       .  A
C4513      C4514   1.403       .  A
C4513      H4516   1.086       .  S
C4514      C4517   1.444       .  S
C4517      N4519   1.157       .  T
C4518      N4520   1.158       .  T
C4521      C4522   1.403       .  A
C4521      C4526   1.420       .  A
C4522      C4523   1.394       .  A
C4522      H4527   1.086       .  S
C4523      C4524   1.420       .  A
C4523      C4530   1.446       .  S
C4524      C4525   1.405       .  A
C4525      C4526   1.402       .  A
C4525      H4528   1.086       .  S
C4526      C4529   1.445       .  S
C4529      N4531   1.158       .  T
C4530      N4532   1.158       .  T
C4533      C4534   1.404       .  A
C4533      C4538   1.410       .  A
C4534      C4535   1.409       .  A
C4534      H4539   1.086       .  S
C4535      C4536   1.416       .  A
C4535      C4542   1.442       .  S
C4536      C4537   1.407       .  A
C4537      C4538   1.396       .  A
C4537      H4540   1.086       .  S
C4538      C4541   1.446       .  S
C4541      N4543   1.157       .  T
C4542      N4544   1.156       .  T
C4545      C4546   1.408       .  A
C4545      C4550   1.414       .  A
C4546      C4547   1.403       .  A
C4546      H4551   1.084       .  S
C4547      C4548   1.411       .  A
C4547      C4554   1.441       .  S
C4548      C4549   1.408       .  A
C4549      C4550   1.405       .  A
C4549      H4552   1.084       .  S
C4550      C4553   1.445       .  S
C4553      N4555   1.158       .  T
C4554      N4556   1.156       .  T
C4557      C4558   1.405       .  A
C4557      C4562   1.420       .  A
C4558      C4559   1.395       .  A
C4558      H4563   1.086       .  S
C4559      C4560   1.420       .  A
C4559      C4566   1.447       .  S
C4560      C4561   1.406       .  A
C4561      C4562   1.409       .  A
C4561      H4564   1.084       .  S
C4562      C4565   1.443       .  S
C4565      N4567   1.157       .  T
C4566      N4568   1.158       .  T
C4569      C4570   1.410       .  A
C4569      C4574   1.424       .  A
C4570      C4571   1.406       .  A
C4570      H4575   1.082       .  S
C4571      C4572   1.413       .  A
C4571      C4578   1.444       .  S
C4572      C4573   1.402       .  A
C4573      C4574   1.391       .  A
C4573      H4576   1.083       .  S
C4574      C4577   1.447       .  S
C4577      N4579   1.158       .  T
C4578      N4580   1.157       .  T
C4581      C4582   1.402       .  A
C4581      C4586   1.416       .  A
C4582      C4583   1.403       .  A
C4582      H4587   1.086       .  S
C4583      C4584   1.422       .  A
C4583      C4590   1.445       .  S
C4584      C4585   1.405       .  A
C4585      C4586   1.401       .  A
C4585      H4588   1.086       .  S
C4586      C4589   1.445       .  S
C4589      N4591   1.158       .  T
C4590      N4592   1.158       .  T
C4593      C4594   1.407       .  A
C4593      C4598   1.415       .  A
C4594      C4595   1.409       .  A
C4594      H4599   1.085       .  S
C4595      C4596   1.414       .  A
C4595      C4602   1.444       .  S
C4596      C4597   1.399       .  A
C4597      C4598   1.395       .  A
C4597      H4600   1.086       .  S
C4598      C4601   1.445       .  S
C4601      N4603   1.157       .  T
C4602      N4604   1.157       .  T
C4605      C4606   1.403       .  A
C4605      C4610   1.411       .  A
C4606      C4607   1.403       .  A
C4606      H4611   1.070       .  S
C4607      C4608   1.412       .  A
C4607      C4614   1.445       .  S
C4608      C4609   1.408       .  A
C4609      C4610   1.407       .  A
C4609      H4612   1.083       .  S
C4610      C4613   1.442       .  S
C4614      N4616   1.157       .  T
C4617      C4618   1.403       .  A
C4617      C4622   1.408       .  A
C4618      C4619   1.398       .  A
C4618      H4623   1.085       .  S
C4619      C4620   1.411       .  A
C4619      C4626   1.444       .  S
C4620      C4621   1.405       .  A
C4621      C4622   1.398       .  A
C4621      H4624   1.085       .  S
C4622      C4625   1.442       .  S
C4625      N4627   1.157       .  T
C4626      N4628   1.157       .  T
C4629      C4630   1.400       .  A
C4630      C4631   1.397       .  A
C4630      H4635   1.083       .  S
C4631      C4632   1.412       .  A
C4631      C4638   1.444       .  S
C4633      C4634   1.397       .  A
C4633      H4636   1.081       .  S
C4634      C4637   1.443       .  S
C4637      N4639   1.157       .  T
C4638      N4640   1.157       .  T
C4641      C4646   1.408       .  A
C4642      C4643   1.406       .  A
C4642      H4647   1.083       .  S
C4643      C4650   1.443       .  S
C4644      C4645   1.407       .  A
C4645      C4646   1.401       .  A
C4645      H4648   1.086       .  S
C4646      C4649   1.443   1_565  S
C4649      N4651   1.157       .  T
C4650      N4652   1.157       .  T
C4653      C4654   1.401       .  A
C4654      C4655   1.401       .  A
C4654      H4659   1.084       .  S
C4655      C4656   1.414   1_655  A
C4655      C4662   1.444       .  S
C4657      C4658   1.399       .  A
C4657      H4660   1.085       .  S
C4658      C4661   1.443       .  S
C4661      N4663   1.157       .  T
C4662      N4664   1.157       .  T
C4665      C4666   1.403       .  A
C4665      C4670   1.417       .  A
C4666      C4667   1.398       .  A
C4666      H4671   1.085       .  S
C4667      C4668   1.409       .  A
C4667      C4674   1.444       .  S
C4668      C4669   1.399       .  A
C4669      C4670   1.397       .  A
C4669      H4672   1.085       .  S
C4670      C4673   1.445       .  S
C4673      N4675   1.157       .  T
C4674      N4676   1.157       .  T
C4677      C4682   1.411   1_545  A
C4678      C4679   1.398       .  A
C4678      H4683   1.084       .  S
C4679      C4686   1.444       .  S
C4680      C4681   1.407   1_545  A
C4681      C4682   1.404       .  A
C4681      H4684   1.085       .  S
C4682      C4685   1.444       .  S
C4685      N4687   1.157       .  T
C4686      N4688   1.157       .  T
C4689      C4690   1.407       .  A
C4689      C4694   1.416       .  A
C4690      C4691   1.402       .  A
C4690      H4695   1.086       .  S
C4691      C4692   1.411       .  A
C4691      C4698   1.444       .  S
C4692      C4693   1.405       .  A
C4693      C4694   1.404       .  A
C4693      H4696   1.086       .  S
C4694      C4697   1.445       .  S
C4697      N4699   1.158       .  T
C4701      C4702   1.407       .  A
C4701      C4706   1.414       .  A
C4702      C4703   1.406       .  A
C4702      H4707   1.085       .  S
C4703      C4704   1.417       .  A
C4703      C4710   1.444       .  S
C4704      C4705   1.403       .  A
C4705      C4706   1.393       .  A
C4705      H4708   1.086       .  S
C4706      C4709   1.443       .  S
C4709      N4711   1.156       .  T
C4710      N4712   1.157       .  T
C4713      C4714   1.404       .  A
C4713      C4718   1.414       .  A
C4714      C4715   1.401       .  A
C4714      H4719   1.084       .  S
C4715      C4716   1.417       .  A
C4715      C4722   1.445       .  S
C4716      C4717   1.409       .  A
C4717      C4718   1.405       .  A
C4717      H4720   1.083       .  S
C4718      C4721   1.444       .  S
C4721      N4723   1.157       .  T
C4722      N4724   1.157       .  T
C4725      C4726   1.409       .  A
C4725      C4730   1.415       .  A
C4726      C4727   1.408       .  A
C4726      H4731   1.084       .  S
C4727      C4728   1.413       .  A
C4727      C4734   1.445       .  S
C4728      C4729   1.404       .  A
C4729      C4730   1.405       .  A
C4729      H4732   1.085       .  S
C4730      C4733   1.444       .  S
C4733      N4735   1.157       .  T
C4737      C4738   1.407       .  A
C4737      C4742   1.413       .  A
C4738      C4739   1.399       .  A
C4738      H4743   1.085       .  S
C4739      C4740   1.415       .  A
C4739      C4746   1.444       .  S
C4740      C4741   1.408       .  A
C4741      C4742   1.404       .  A
C4741      H4744   1.085       .  S
C4742      C4745   1.441       .  S
C4745      N4747   1.156       .  T
C4746      N4748   1.157       .  T
C4749      C4750   1.403       .  A
C4749      C4754   1.410       .  A
C4750      C4751   1.396       .  A
C4750      H4755   1.081       .  S
C4751      C4752   1.412       .  A
C4751      C4758   1.445       .  S
C4752      C4753   1.406       .  A
C4753      C4754   1.401       .  A
C4753      H4756   1.085       .  S
C4754      C4757   1.441       .  S
C4757      N4759   1.156   1_655  T
C4758      N4760   1.157       .  T
C4761      C4762   1.410       .  A
C4761      C4766   1.411       .  A
C4762      C4763   1.398       .  A
C4762      H4767   1.083       .  S
C4763      C4764   1.416       .  A
C4763      C4770   1.445       .  S
C4764      C4765   1.415       .  A
C4765      C4766   1.406       .  A
C4765      H4768   1.083       .  S
C4766      C4769   1.443       .  S
C4770      N4772   1.158       .  T
C4773      C4774   1.407       .  A
C4773      C4778   1.416       .  A
C4774      C4775   1.410       .  A
C4774      H4779   1.085       .  S
C4775      C4776   1.415       .  A
C4775      C4782   1.443       .  S
C4776      C4777   1.405       .  A
C4777      C4778   1.398       .  A
C4777      H4780   1.086       .  S
C4778      C4781   1.445       .  S
C4781      N4783   1.157       .  T
C4782      N4784   1.157       .  T
C4785      C4786   1.410       .  A
C4785      C4790   1.413       .  A
C4786      C4787   1.407       .  A
C4786      H4791   1.083       .  S
C4787      C4788   1.409       .  A
C4787      C4794   1.444       .  S
C4788      C4789   1.403       .  A
C4789      C4790   1.404       .  A
C4789      H4792   1.078       .  S
C4790      C4793   1.444       .  S
C4793      N4795   1.157       .  T
C4794      N4796   1.157   1_565  T
C4797      C4798   1.405       .  A
C4797      C4802   1.409       .  A
C4798      C4799   1.404       .  A
C4798      H4803   1.085       .  S
C4799      C4800   1.411       .  A
C4799      C4806   1.444       .  S
C4800      C4801   1.407       .  A
C4801      C4802   1.403       .  A
C4801      H4804   1.086       .  S
C4802      C4805   1.444       .  S
C4805      N4807   1.157       .  T
C4806      N4808   1.157       .  T
C4809      C4810   1.402       .  A
C4809      C4814   1.415       .  A
C4810      C4811   1.393       .  A
C4810      H4815   1.082       .  S
C4811      C4812   1.413       .  A
C4811      C4818   1.446       .  S
C4812      C4813   1.410       .  A
C4813      C4814   1.412       .  A
C4813      H4816   1.085       .  S
C4814      C4817   1.443       .  S
C4817      N4819   1.157       .  T
C4821      C4822   1.404       .  A
C4821      C4826   1.416       .  A
C4822      C4823   1.408       .  A
C4822      H4827   1.084       .  S
C4823      C4824   1.416       .  A
C4823      C4830   1.444       .  S
C4824      C4825   1.402       .  A
C4825      C4826   1.401       .  A
C4825      H4828   1.085       .  S
C4826      C4829   1.442       .  S
C4829      N4831   1.156       .  T
C4830      N4832   1.157       .  T
