geometry optimzed in LAMMPS
_audit_creation_date              2020-11-30 
_audit_creation_method            'lammps2cif' 
_symmetry_space_group_name_H-M    'P1' 
_symmetry_Int_Tables_number       1 
_symmetry_cell_setting            triclinic 
loop_ 
_symmetry_equiv_pos_as_xyz 
  x,y,z 
_cell_length_a                    46.98927415 
_cell_length_b                    42.79672250213823 
_cell_length_c                    31.579055524231578 
_cell_angle_alpha                 94.17394229884286 
_cell_angle_beta                  90.15601778303596 
_cell_angle_gamma                 122.8296844998806 
loop_ 
_atom_site_label 
_atom_site_type_symbol 
_atom_site_fract_x 
_atom_site_fract_y 
_atom_site_fract_z 
_atom_site_charge 
C1          C  0.35359234  0.21295571  0.05166472     0.29800
C2          C  0.34277023  0.18603988  0.46982686     0.29800
C3          C  0.31580290  0.18743919  0.03606408    -0.06400
C4          C  0.36882726  0.24211486  0.02014433    -0.07100
C5          C  0.36696297  0.18747362  0.03978277    -0.07000
C6          C  0.31004287  0.17435193  0.49322883    -0.06400
C7          C  0.36302684  0.22904186  0.47808905    -0.07100
C8          C  0.36128278  0.17438262  0.49776110    -0.07000
C9          C  0.27528379  0.15470566  0.48491696    -0.32400
N10         N  0.26005950  0.15330883  0.52194568     0.14100
C11         C  0.28450715  0.17225887  0.05337487    -0.32400
H12         H  0.27941642  0.17438212  0.08647177     0.16000
C13         C  0.37950818  0.26021975  0.45508852    -0.31400
N14         N  0.39558954  0.29104684  0.98315377     0.12800
C15         C  0.38902133  0.28024776  0.02296368    -0.31400
C16         C  0.37402366  0.15233566  0.49092260    -0.31700
N17         N  0.38672797  0.15040142  0.52828754     0.13300
H18         H  0.37386405  0.13838155  0.46079433     0.15900
C19         C  0.38279052  0.17184199  0.05863740    -0.31700
H20         H  0.39023370  0.17485355  0.09182321     0.15900
H21         H  0.39867018  0.29891204  0.05180841     0.15900
H22         H  0.26183902  0.14237361  0.45444612     0.16000
H23         H  0.38061072  0.26055954  0.42089132     0.15900
C24         C  0.34633607  0.17907079  0.29639233     0.29800
C25         C  0.34790099  0.19193121  0.21468036     0.29800
C26         C  0.31169305  0.16622751  0.27530533    -0.06400
C27         C  0.36714920  0.22054358  0.28821145    -0.07100
C28         C  0.35878441  0.15978650  0.26661449    -0.07000
C29         C  0.31183781  0.17136284  0.23240509    -0.06400
C30         C  0.36796930  0.22636981  0.24626108    -0.07100
C31         C  0.35982184  0.16612004  0.22447127    -0.07000
C32         C  0.27801880  0.15373787  0.21835634    -0.32400
N33         N  0.25820724  0.14010549  0.25228363     0.14100
C34         C  0.27898542  0.14985988  0.28729123    -0.32400
H35         H  0.27057023  0.14501743  0.31932544     0.16000
C36         C  0.38424821  0.26398942  0.24310857    -0.31400
N37         N  0.39296941  0.28198409  0.28251118     0.12800
C38         C  0.38174969  0.25550208  0.31079216    -0.31400
C39         C  0.36958650  0.14417829  0.20304154    -0.31700
N40         N  0.37504692  0.12578741  0.23210121     0.13300
H41         H  0.37284483  0.14203677  0.16924348     0.15900
C42         C  0.36793250  0.13468005  0.27084300    -0.31700
H43         H  0.37000144  0.12418263  0.30011423     0.15900
H44         H  0.38294458  0.26097688  0.34495890     0.15900
H45         H  0.26852761  0.15000878  0.18591029     0.16000
H46         H  0.38868579  0.27735796  0.21388108     0.15900
C47         C  0.11614259  0.06420101  0.03997884     0.76300
Tb48       Tb  0.47251969  0.01949068  0.04274631     1.80700
O49         O  0.09950386  0.05443225  0.07321348    -0.51700
O50         O  0.06334689  0.47543142  0.05982864    -0.59200
C51         C  0.04683381  0.08785064  0.05643793     0.92100
O52         O  0.47787308  0.07808727  0.05527456    -0.58700
Tb53       Tb  0.04547171  0.01394474  0.03751989     1.78100
O54         O  0.42860462  0.46264338  0.06959934    -0.59200
O55         O  0.99282035  0.45795402  0.03915779    -0.78000
O56         O  0.05306735  0.07138871  0.02690684    -0.77300
O57         O  0.03005450  0.01457989  0.46164970    -0.62600
C58         C  0.47055543  0.44684358  0.00929909     0.91700
O59         O  0.48603056  0.01396846  0.11777168    -0.74500
C60         C  0.40722961  0.97175049  0.07337881     0.75100
C61         C  0.06601990  0.46320884  0.02355147     0.76100
O62         O  0.09763483  0.04985080  0.50640495    -0.59800
O63         O  0.05688799  0.47468346  0.99406702    -0.51700
O64         O  0.48706968  0.02260541  0.46445574    -0.77800
O65         O  0.03404709  0.01528706  0.11635642    -0.61800
C66         C  0.01004969  0.01406852  0.13872958     0.89900
C67         C  0.00859929  0.01921648  0.44135836     0.91100
C68         C  0.45373503  0.07111481  0.53049207     0.75500
O69         O  0.41843113  0.00373782  0.06247237    -0.51100
O70         O  0.44086473  0.53975959  0.50970734    -0.52300
O71         O  0.46359458  0.46935697  0.99684340    -0.65100
O72         O  0.02218018  0.06861176  0.07887820    -0.66300
C73         C  0.11475958  0.06354497  0.27352851     0.76300
Tb74       Tb  0.47075622  0.01408770  0.28598898     1.80700
O75         O  0.10495642  0.05711616  0.31084505    -0.51700
O76         O  0.07958556  0.50105175  0.33219868    -0.59200
C77         C  0.04610413  0.09143193  0.29768841     0.92100
O78         O  0.46081951  0.06212211  0.28200328    -0.58700
Tb79       Tb  0.04673458  0.01694900  0.29412319     1.78100
O80         O  0.41736625  0.45840573  0.28493984    -0.59200
O81         O  0.99846522  0.46067860  0.31067545    -0.78000
O82         O  0.05517625  0.07423591  0.31916436    -0.77300
O83         O  0.03256917  0.01407017  0.21478160    -0.62600
C84         C  0.47284133  0.44217237  0.28538044     0.91700
O85         O  0.48551779  0.01828441  0.36535052    -0.74500
C86         C  0.40526359  0.96837536  0.31453207     0.75100
C87         C  0.07046162  0.47100428  0.31058083     0.76100
O88         O  0.09047337  0.04789682  0.24581226    -0.59800
O89         O  0.04885653  0.46292843  0.28085273    -0.51700
O90         O  0.48487390  0.01297345  0.21037018    -0.77800
O91         O  0.03372002  0.02050957  0.36974237    -0.61800
C92         C  0.00907786  0.01956230  0.38927980     0.89900
C93         C  0.00939556  0.01357868  0.19084776     0.94500
C94         C  0.43730851  0.04605793  0.25347143     0.75500
O95         O  0.42671541  0.00043479  0.33210014    -0.51100
O96         O  0.43050308  0.51415809  0.24047052    -0.52300
O97         O  0.46712306  0.45963679  0.25990820    -0.65100
O98         O  0.01771962  0.07388149  0.27740266    -0.66300
C99         C  0.17847461  0.33479852  0.02029200     0.29800
C100        C  0.17350279  0.35322282  0.10106260     0.29800
C101        C  0.16284564  0.35871267  0.02713864    -0.06400
C102        C  0.15824546  0.30232754  0.04690921    -0.07100
C103        C  0.21280158  0.35854881  0.04570972    -0.07000
C104        C  0.16044976  0.36751597  0.06878638    -0.06400
C105        C  0.15456278  0.31044342  0.08828957    -0.07100
C106        C  0.21007950  0.36714835  0.08822775    -0.07000
C107        C  0.14313013  0.38501583  0.07091748    -0.32400
N108        N  0.13377979  0.38651671  0.03099644     0.14100
C109        C  0.14635910  0.37134577  0.00359235    -0.32400
H110        H  0.14215733  0.36795854  0.96943899     0.16000
C111        C  0.13426903  0.27572725  0.10486327    -0.31400
N112        N  0.12677727  0.24803298  0.07370403     0.12800
C113        C  0.14206709  0.26464340  0.03863662    -0.31400
C114        C  0.24196938  0.38362981  0.10795540    -0.31700
N115        N  0.26411560  0.38743515  0.07815622     0.13300
H116        H  0.24870916  0.39171523  0.14153467     0.15900
C117        C  0.24678204  0.37332232  0.03989178    -0.31700
H118        H  0.25849581  0.37456403  0.01017280     0.15900
H119        H  0.14122969  0.25016910  0.00861367     0.15900
H120        H  0.13645883  0.39451841  0.09964347     0.16000
H121        H  0.12521867  0.27092487  0.13667445     0.15900
C122        C  0.17269725  0.34699886  0.26923339     0.29800
C123        C  0.17318612  0.33557871  0.35070967     0.29800
C124        C  0.15263569  0.35764211  0.29748168    -0.06400
C125        C  0.15981594  0.30669689  0.27702107    -0.07100
C126        C  0.20842914  0.36885365  0.29222357    -0.07000
C127        C  0.15301856  0.35301168  0.33971783    -0.06400
C128        C  0.16055151  0.30146919  0.31910521    -0.07100
C129        C  0.20833045  0.36357791  0.33504923    -0.07000
C130        C  0.14090228  0.37354680  0.35981093    -0.32400
N131        N  0.13098591  0.38733682  0.32933629     0.14100
C132        C  0.13827081  0.37742782  0.29138761    -0.32400
H133        H  0.13516070  0.38599863  0.26120353     0.16000
C134        C  0.14809837  0.26455119  0.32242355    -0.31400
N135        N  0.13871816  0.24658726  0.28310450     0.12800
C136        C  0.14575835  0.27197783  0.25467035    -0.31400
C137        C  0.24147748  0.38124290  0.35015025    -0.31700
N138        N  0.26162090  0.39433764  0.31699898     0.13300
H139        H  0.25058209  0.38258322  0.38215527     0.15900
C140        C  0.24191662  0.38657362  0.28128172    -0.31700
H141        H  0.25124562  0.39180031  0.24959655     0.15900
H142        H  0.13932628  0.26533656  0.22089891     0.15900
H143        H  0.14094041  0.37946127  0.39371191     0.16000
H144        H  0.14346890  0.25105357  0.35159195     0.15900
C145        C  0.17413944  0.31895267  0.47633961    -0.06300
C146        C  0.14205121  0.30413036  0.45661792    -0.17400
C147        C  0.13983864  0.30682836  0.41412841     0.10900
C148        C  0.17064544  0.32362445  0.39314865    -0.06200
C149        C  0.19705190  0.32113507  0.40987494    -0.17400
C150        C  0.19906446  0.31867211  0.45280743     0.10900
S151        S  0.09804077  0.29053781  0.39162239    -0.32400
S152        S  0.22636771  0.30491239  0.47231164    -0.32400
H153        H  0.21041382  0.29336721  0.01081022     0.28900
H154        H  0.10240739  0.28125739  0.34982284     0.28900
H155        H  0.12000612  0.29604021  0.47511511     0.19500
H156        H  0.21546605  0.32066249  0.38980072     0.19500
C157        C  0.16877268  0.35446755  0.22599193    -0.06300
C158        C  0.19441099  0.38856561  0.21168216    -0.17400
C159        C  0.19390362  0.39421366  0.16961009     0.10900
C160        C  0.16796915  0.36450925  0.14345832    -0.06200
C161        C  0.13711599  0.33996908  0.16042144    -0.17400
C162        C  0.13714934  0.33303144  0.20207412     0.10900
S163        S  0.22442819  0.43953064  0.15222429    -0.32400
S164        S  0.09642668  0.29585310  0.21901501    -0.32400
H165        H  0.10170510  0.29997779  0.26307411     0.28900
H166        H  0.20858848  0.43329905  0.11201247     0.28900
H167        H  0.21441576  0.41077118  0.23274715     0.19500
H168        H  0.11457850  0.32194135  0.13985482     0.19500
C169        C  0.11570830  0.20701991  0.27711717    -0.06300
C170        C  0.08118981  0.19296391  0.28042552    -0.17400
C171        C  0.05833604  0.15620783  0.28969743     0.10900
C172        C  0.06973964  0.13195996  0.29371599    -0.06200
C173        C  0.10444119  0.14615899  0.29004285    -0.17400
C174        C  0.12736500  0.18323310  0.28145261     0.10900
S175        S  0.01626371  0.14392039  0.30162458    -0.32400
S176        S  0.17148952  0.19939173  0.27789169    -0.32400
H177        H  0.18046140  0.23040426  0.25535427     0.28900
H178        H  0.01244419  0.12087385  0.33362883     0.28900
H179        H  0.07268549  0.21194391  0.27976191     0.19500
H180        H  0.11378556  0.12828229  0.29363171     0.19500
C181        C  0.36866169  0.44625026  0.32302162    -0.06300
C182        C  0.34771830  0.41248620  0.29766506    -0.17400
C183        C  0.31244463  0.39428383  0.29626718     0.10900
C184        C  0.29749725  0.41055860  0.31964813    -0.06200
C185        C  0.31794929  0.44264078  0.34730995    -0.17400
C186        C  0.35323422  0.46029660  0.34989688     0.10900
S187        S  0.28782420  0.35019685  0.26463473    -0.32400
S188        S  0.37676531  0.00107189  0.38699681    -0.32400
H189        H  0.39835440  0.99055571  0.40207174     0.28900
H190        H  0.26015810  0.33461762  0.29109117     0.28900
H191        H  0.35885305  0.40057060  0.27776177     0.19500
H192        H  0.30624008  0.45424891  0.36656771     0.19500
C193        C  0.11898588  0.41215056  0.33277527    -0.06300
C194        C  0.13195600  0.44051021  0.30484388    -0.17400
C195        C  0.11508602  0.45775898  0.29520189     0.10900
C196        C  0.08630602  0.44994453  0.31731128    -0.06200
C197        C  0.07508553  0.42462896  0.34881514    -0.17400
C198        C  0.09052904  0.40481683  0.35591929     0.10900
S199        S  0.13111471  0.48830859  0.25290731    -0.32400
S200        S  0.07210773  0.36986401  0.39325840    -0.32400
H201        H  0.07319996  0.34278116  0.36663667     0.28900
H202        H  0.09976378  0.48065459  0.23735935     0.28900
H203        H  0.15419443  0.44716762  0.28753508     0.19500
H204        H  0.05347037  0.41927589  0.36680226     0.19500
C205        C  0.10438181  0.20790001  0.07305866    -0.06300
C206        C  0.08454336  0.18828853  0.03542773    -0.17400
C207        C  0.06665039  0.14953362  0.02890845     0.10900
C208        C  0.06590020  0.12887828  0.06206442    -0.06200
C209        C  0.08428976  0.14789239  0.10062514    -0.17400
C210        C  0.10460626  0.18716558  0.10581362     0.10900
S211        S  0.04575022  0.12848901  0.47712653    -0.32400
S212        S  0.13243960  0.20867273  0.15271298    -0.32400
H213        H  0.16003052  0.23616888  0.13151119     0.28900
H214        H  0.01812635  0.09576434  0.49108259     0.28900
H215        H  0.08381480  0.20351257  0.50996463     0.19500
H216        H  0.08444352  0.13207500  0.12580771     0.19500
C217        C  0.37179776  0.44762893  0.08584547    -0.06300
C218        C  0.35304584  0.40974292  0.07088416    -0.17400
C219        C  0.31741053  0.38860460  0.07065487     0.10900
C220        C  0.30026825  0.40581287  0.08508643    -0.06200
C221        C  0.31915093  0.44245978  0.10419098    -0.17400
C222        C  0.35463002  0.46332618  0.10525297     0.10900
S223        S  0.29388250  0.33968432  0.55234211    -0.32400
S224        S  0.37660416  0.01020223  0.13079761    -0.32400
H225        H  0.40551930  0.01076052  0.14404650     0.28900
H226        H  0.32196241  0.33785869  0.04128399     0.28900
H227        H  0.36616244  0.39737024  0.05702747     0.19500
H228        H  0.30609695  0.45536397  0.11679314     0.19500
C229        C  0.07935090  0.43881607  0.01724358    -0.06300
C230        C  0.06726126  0.40889499  0.04251169    -0.17400
C231        C  0.08265801  0.38867420  0.04372276     0.10900
C232        C  0.11230890  0.39983887  0.02127327    -0.06200
C233        C  0.12313267  0.42814808  0.99374926    -0.17400
C234        C  0.10656293  0.44722460  0.99088016     0.10900
S235        S  0.06337795  0.34889607  0.07472083    -0.32400
S236        S  0.12348409  0.98454878  0.95655912    -0.32400
H237        H  0.09181902  0.97157591  0.93635319     0.28900
H238        H  0.07518538  0.32947001  0.05079881     0.28900
H239        H  0.04581396  0.40145990  0.06190469     0.19500
H240        H  0.14556844  0.43663041  0.97602660     0.19500
C241        C  0.38921149  0.10350522  0.22584470    -0.06300
C242        C  0.36919302  0.06565320  0.23321552    -0.17400
C243        C  0.38391604  0.04505554  0.23901449     0.10900
C244        C  0.41947889  0.06304720  0.23810374    -0.06200
C245        C  0.43902389  0.09996395  0.22736288    -0.17400
C246        C  0.42432821  0.12037008  0.22144318     0.10900
S247        S  0.35749207  0.99694806  0.25071106    -0.32400
S248        S  0.45214754  0.16872383  0.21218532    -0.32400
H249        H  0.43689624  0.18169380  0.24031528     0.28900
H250        H  0.32668370  0.99508905  0.25179281     0.28900
H251        H  0.34230123  0.05304643  0.23681064     0.19500
H252        H  0.46624456  0.11363900  0.22581069     0.19500
C253        C  0.40955571  0.32204413  0.28970417    -0.06300
C254        C  0.40056867  0.33993009  0.26197131    -0.17400
C255        C  0.42083379  0.37834425  0.25873424     0.10900
C256        C  0.44987492  0.40088029  0.28661486    -0.06200
C257        C  0.45710638  0.38332744  0.31721369    -0.17400
C258        C  0.43793654  0.34438273  0.31835628     0.10900
S259        S  0.40906425  0.39553378  0.21598718    -0.32400
S260        S  0.45264724  0.32508374  0.35476619    -0.32400
H261        H  0.45097024  0.29881186  0.32367769     0.28900
H262        H  0.44074533  0.41113919  0.19760721     0.28900
H263        H  0.37857281  0.32326322  0.24022218     0.19500
H264        H  0.47891831  0.39984214  0.33928062     0.19500
C265        C  0.22158146  0.11796697  0.25274976    -0.06300
C266        C  0.20186058  0.12552627  0.22704561    -0.17400
C267        C  0.16666155  0.10789681  0.23170133     0.10900
C268        C  0.15124656  0.08382483  0.26456240    -0.06200
C269        C  0.17108908  0.07618847  0.28953512    -0.17400
C270        C  0.20492501  0.09043414  0.28180266     0.10900
S271        S  0.14375742  0.11819755  0.19529490    -0.32400
S272        S  0.22409166  0.06914851  0.30692760    -0.32400
H273        H  0.24573068  0.07396240  0.27378626     0.28900
H274        H  0.11720077  0.11113093  0.22132226     0.28900
H275        H  0.21401785  0.14580161  0.20385065     0.19500
H276        H  0.15940938  0.05647476  0.31346591     0.19500
C277        C  0.43830639  0.09364853  0.52984562    -0.06300
C278        C  0.40525027  0.07581041  0.51149750    -0.17400
C279        C  0.38692768  0.09280734  0.51395308     0.10900
C280        C  0.40227177  0.12960069  0.53309476    -0.06200
C281        C  0.43492638  0.14736667  0.05240331    -0.17400
C282        C  0.45299417  0.12980821  0.55121712     0.10900
S283        S  0.34325608  0.06525538  0.49417781    -0.32400
S284        S  0.49480982  0.15544227  0.07653648    -0.32400
H285        H  0.50876032  0.14784562  0.04118602     0.28900
H286        H  0.33219382  0.08290494  0.52269278     0.28900
H287        H  0.39279378  0.04755171  0.49661330     0.19500
H288        H  0.44687081  0.17563539  0.06712282     0.19500
C289        C  0.41651865  0.32928238  0.97447853    -0.06300
C290        C  0.40091645  0.34842534  0.46625240    -0.17400
C291        C  0.41869854  0.38739763  0.47330439     0.10900
C292        C  0.45255834  0.40750339  0.99066099    -0.06200
C293        C  0.46893496  0.38833795  0.99437111    -0.17400
C294        C  0.45141436  0.34966420  0.98589185     0.10900
S295        S  0.39557857  0.40887772  0.46363513    -0.32400
S296        S  0.47396327  0.32722480  0.99403715    -0.32400
H297        H  0.45114725  0.29397021  0.96899180     0.28900
H298        H  0.41980149  0.43398481  0.43676905     0.28900
H299        H  0.37404717  0.33265127  0.45743740     0.19500
H300        H  0.49518823  0.40328820  0.00590885     0.19500
C301        C  0.15343980  0.08924398  0.03900454    -0.06300
C302        C  0.16674390  0.11414815  0.50713846    -0.17400
C303        C  0.20172745  0.13672743  0.50216710     0.10900
C304        C  0.22414725  0.13323865  0.02820367    -0.06200
C305        C  0.21096702  0.10931993  0.06104809    -0.17400
C306        C  0.17600858  0.08734956  0.06670493     0.10900
S307        S  0.21627779  0.17076945  0.46370725    -0.32400
S308        S  0.16177694  0.05589592  0.10802121    -0.32400
H309        H  0.13557069  0.02523915  0.08243083     0.28900
H310        H  0.24680659  0.19743320  0.48655201     0.28900
H311        H  0.14971838  0.11643158  0.48626731     0.19500
H312        H  0.22802085  0.10677458  0.08149898     0.19500
C313        C  0.34368166  0.17336336  0.42546823    -0.06300
C314        C  0.37585910  0.19262178  0.40840676    -0.17400
C315        C  0.37873141  0.19157424  0.36543689     0.10900
C316        C  0.34818302  0.17101843  0.34030254    -0.06200
C317        C  0.31944046  0.14163228  0.35760286    -0.17400
C318        C  0.31704347  0.14213536  0.40121829     0.10900
S319        S  0.42140395  0.21952663  0.34719168    -0.32400
S320        S  0.28443183  0.09995052  0.42253931    -0.32400
H321        H  0.30177985  0.10688038  0.46186700     0.28900
H322        H  0.41572652  0.20434511  0.30511397     0.28900
H323        H  0.39857259  0.21112589  0.42855982     0.19500
H324        H  0.29928107  0.11859188  0.33742711     0.19500
C325        C  0.36238119  0.23197550  0.09512303    -0.06300
C326        C  0.39044865  0.23631675  0.11581986    -0.17400
C327        C  0.38624251  0.22175438  0.15439653     0.10900
C328        C  0.35370178  0.20577688  0.17233145    -0.06200
C329        C  0.33196603  0.21628717  0.15755313    -0.17400
C330        C  0.33773423  0.23188175  0.11927593     0.10900
S331        S  0.42346641  0.22469781  0.17601318    -0.32400
S332        S  0.31576442  0.25290693  0.10172481    -0.32400
H333        H  0.29438224  0.24367978  0.13605695     0.28900
H334        H  0.42042003  0.23116040  0.21925839     0.28900
H335        H  0.41303567  0.24407812  0.09868302     0.19500
H336        H  0.31194834  0.21419124  0.17639769     0.19500
C337        C  0.35359201  0.21295547  0.55166429     0.29800
C338        C  0.34277055  0.18604012  0.96982720     0.29800
C339        C  0.31580259  0.18743904  0.53606369    -0.06400
C340        C  0.36882696  0.24211459  0.52014394    -0.07100
C341        C  0.36696257  0.18747334  0.53978247    -0.07000
C342        C  0.31004316  0.17435204  0.99322921    -0.06400
C343        C  0.36302704  0.22904206  0.97808944    -0.07100
C344        C  0.36128316  0.17438292  0.99776138    -0.07000
C345        C  0.27528417  0.15470577  0.98491771    -0.32400
N346        N  0.26005974  0.15330885  0.02194596     0.14100
C347        C  0.28450690  0.17225871  0.55337422    -0.32400
H348        H  0.27941602  0.17438192  0.58647260     0.16000
C349        C  0.37950811  0.26021985  0.95508880    -0.31400
N350        N  0.39558955  0.29104664  0.48315365     0.12800
C351        C  0.38902110  0.28024745  0.52296343    -0.31400
C352        C  0.37402386  0.15233582  0.99092295    -0.31700
N353        N  0.38672798  0.15040129  0.02828777     0.13300
H354        H  0.37386418  0.13838149  0.96079415     0.15900
C355        C  0.38279040  0.17184203  0.55863707    -0.31700
H356        H  0.39023390  0.17485396  0.59182310     0.15900
H357        H  0.39867000  0.29891165  0.55180835     0.15900
H358        H  0.26183875  0.14237309  0.95444525     0.16000
H359        H  0.38061031  0.26055958  0.92089156     0.15900
C360        C  0.34633731  0.17907229  0.79639262     0.29800
C361        C  0.34790251  0.19193329  0.71468081     0.29800
C362        C  0.31169429  0.16622866  0.77530531    -0.06400
C363        C  0.36715013  0.22054517  0.78821211    -0.07100
C364        C  0.35878619  0.15978860  0.76661475    -0.07000
C365        C  0.31183919  0.17136422  0.73240518    -0.06400
C366        C  0.36797034  0.22637168  0.74626185    -0.07100
C367        C  0.35982387  0.16612254  0.72447158    -0.07000
C368        C  0.27802015  0.15373932  0.71835624    -0.32400
N369        N  0.25820850  0.14010684  0.75228351     0.14100
C370        C  0.27898661  0.14986108  0.78729114    -0.32400
H371        H  0.27057144  0.14501880  0.81932507     0.16000
C372        C  0.38424943  0.26399138  0.74310942    -0.31400
N373        N  0.39297065  0.28198576  0.78251234     0.12800
C374        C  0.38175094  0.25550363  0.81079327    -0.31400
C375        C  0.36958922  0.14418151  0.70304202    -0.31700
N376        N  0.37504984  0.12579072  0.73210136     0.13300
H377        H  0.37284784  0.14204018  0.66924275     0.15900
C378        C  0.36793478  0.13468262  0.77084309    -0.31700
H379        H  0.37000354  0.12418474  0.80011454     0.15900
H380        H  0.38294612  0.26097817  0.84495907     0.15900
H381        H  0.26852918  0.15001062  0.68591061     0.16000
H382        H  0.38868706  0.27735970  0.71388303     0.15900
C383        C  0.11614243  0.06420054  0.53997877     0.76300
Tb384      Tb  0.47251934  0.01949069  0.54274658     1.80700
O385        O  0.09950394  0.05443108  0.57321352    -0.51700
O386        O  0.06334702  0.47543174  0.55982942    -0.59200
C387        C  0.04683360  0.08785009  0.55643674     0.92100
O388        O  0.47787270  0.07808727  0.55527462    -0.58700
Tb389      Tb  0.04547158  0.01394443  0.53752018     1.78100
O390        O  0.42860474  0.46264359  0.56960126    -0.59200
O391        O  0.99281952  0.45795425  0.53915952    -0.78000
O392        O  0.05306685  0.07138789  0.52690569    -0.77300
O393        O  0.03005468  0.01458047  0.96164956    -0.62600
C394        C  0.47055529  0.44684339  0.50929988     0.91700
O395        O  0.48603061  0.01396906  0.61777207    -0.74500
C396        C  0.40722924  0.97175058  0.57337925     0.75100
C397        C  0.06601899  0.46320808  0.52355237     0.76100
O398        O  0.09763520  0.04985049  0.00640493    -0.59800
O399        O  0.05688609  0.47468162  0.49406779    -0.51700
O400        O  0.48706995  0.02260576  0.96445554    -0.77800
O401        O  0.03404718  0.01528740  0.61635662    -0.61800
C402        C  0.01004993  0.01406914  0.63872985     0.89900
C403        C  0.00859945  0.01921705  0.94135834     0.91100
C404        C  0.45373517  0.07111472  0.03049237     0.75500
O405        O  0.41843105  0.00373826  0.56247372    -0.51100
O406        O  0.44086334  0.53975799  0.00970858    -0.52300
O407        O  0.46359434  0.46935656  0.49684363    -0.65100
O408        O  0.02218022  0.06861153  0.57887744    -0.66300
C409        C  0.11476087  0.06354716  0.77352936     0.76300
Tb410      Tb  0.47075685  0.01408897  0.78598930     1.80700
O411        O  0.10495755  0.05711847  0.81084583    -0.51700
O412        O  0.07958664  0.50105376  0.83219900    -0.59200
C413        C  0.04610449  0.09143325  0.79768920     0.92100
O414        O  0.46082013  0.06212351  0.78200530    -0.58700
Tb415      Tb  0.04673576  0.01695077  0.79412358     1.78100
O416        O  0.41736633  0.45840746  0.78493932    -0.59200
O417        O  0.99846633  0.46068036  0.81067560    -0.78000
O418        O  0.05517657  0.07423723  0.81916524    -0.77300
O419        O  0.03256997  0.01407157  0.71478193    -0.62600
C420        C  0.47284228  0.44217386  0.78538136     0.91700
O421        O  0.48551830  0.01828523  0.86535064    -0.74500
C422        C  0.40526355  0.96837663  0.81453046     0.75100
C423        C  0.07046318  0.47100649  0.81058105     0.76100
O424        O  0.09047475  0.04789882  0.74581294    -0.59800
O425        O  0.04885841  0.46293063  0.78085248    -0.51700
O426        O  0.48487461  0.01297486  0.71037062    -0.77800
O427        O  0.03372039  0.02051051  0.86974251    -0.61800
C428        C  0.00907815  0.01956311  0.88927988     0.89900
C429        C  0.00939612  0.01357967  0.69084811     0.94500
C430        C  0.43731018  0.04606027  0.75347205     0.75500
O431        O  0.42671564  0.00043530  0.83210006    -0.51100
O432        O  0.43050447  0.51415988  0.74046977    -0.52300
O433        O  0.46712389  0.45963816  0.75990909    -0.65100
O434        O  0.01772001  0.07388279  0.77740338    -0.66300
C435        C  0.17847402  0.33479822  0.52029149     0.29800
C436        C  0.17350200  0.35322164  0.60106231     0.29800
C437        C  0.16284519  0.35871248  0.52713860    -0.06400
C438        C  0.15824461  0.30232692  0.54690816    -0.07100
C439        C  0.21280090  0.35854805  0.54570939    -0.07000
C440        C  0.16044916  0.36751531  0.56878650    -0.06400
C441        C  0.15456182  0.31044241  0.58828864    -0.07100
C442        C  0.21007873  0.36714710  0.58822754    -0.07000
C443        C  0.14312920  0.38501476  0.57091789    -0.32400
N444        N  0.13377884  0.38651593  0.53099705     0.14100
C445        C  0.14635855  0.37134562  0.50359272    -0.32400
H446        H  0.14215685  0.36795872  0.46943899     0.16000
C447        C  0.13426816  0.27572612  0.60486197    -0.31400
N448        N  0.12677661  0.24803216  0.57370242     0.12800
C449        C  0.14206643  0.26464294  0.53863532    -0.31400
C450        C  0.24196854  0.38362825  0.60795528    -0.31700
N451        N  0.26411483  0.38743389  0.57815597     0.13300
H452        H  0.24870822  0.39171334  0.64153450     0.15900
C453        C  0.24678134  0.37332153  0.53989154    -0.31700
H454        H  0.25849528  0.37456352  0.51017221     0.15900
H455        H  0.14122928  0.25016858  0.50861153     0.15900
H456        H  0.13645751  0.39451697  0.59964447     0.16000
H457        H  0.12521785  0.27092347  0.63667323     0.15900
C458        C  0.17269643  0.34699986  0.76923430     0.29800
C459        C  0.17318612  0.33557990  0.85071054     0.29800
C460        C  0.15263386  0.35764159  0.79748264    -0.06400
C461        C  0.15981656  0.30669820  0.77702173    -0.07100
C462        C  0.20842836  0.36885603  0.79222453    -0.07000
C463        C  0.15301716  0.35301126  0.83971878    -0.06400
C464        C  0.16055263  0.30147061  0.81910584    -0.07100
C465        C  0.20833011  0.36358038  0.83505018    -0.07000
C466        C  0.14090209  0.37354749  0.85981259    -0.32400
N467        N  0.13098551  0.38733750  0.82933794     0.14100
C468        C  0.13826949  0.37742792  0.79138899    -0.32400
H469        H  0.13515967  0.38599920  0.76120546     0.16000
C470        C  0.14810000  0.26455267  0.82242401    -0.31400
N471        N  0.13871942  0.24658861  0.78310496     0.12800
C472        C  0.14575905  0.27197913  0.75467106    -0.31400
C473        C  0.24147732  0.38124546  0.85015068    -0.31700
N474        N  0.26162043  0.39434015  0.81699911     0.13300
H475        H  0.25058218  0.38258548  0.88215531     0.15900
C476        C  0.24191577  0.38657591  0.78128203    -0.31700
H477        H  0.25124418  0.39180201  0.74959741     0.15900
H478        H  0.13932621  0.26533757  0.72089906     0.15900
H479        H  0.14094127  0.37946254  0.89371205     0.16000
H480        H  0.14347069  0.25105505  0.85159241     0.15900
C481        C  0.17413996  0.31895262  0.97634024    -0.06300
C482        C  0.14205145  0.30412988  0.95661882    -0.17400
C483        C  0.13983896  0.30682849  0.91412930     0.10900
C484        C  0.17064575  0.32362547  0.89314950    -0.06200
C485        C  0.19705261  0.32113658  0.90987541    -0.17400
C486        C  0.19906523  0.31867300  0.95280779     0.10900
S487        S  0.09804098  0.29053762  0.89162343    -0.32400
S488        S  0.22636865  0.30491326  0.97231136    -0.32400
H489        H  0.21041273  0.29336652  0.51081041     0.28900
H490        H  0.10240766  0.28125639  0.84982422     0.28900
H491        H  0.12000719  0.29603961  0.97511546     0.19500
H492        H  0.21546702  0.32066477  0.88980091     0.19500
C493        C  0.16877147  0.35446821  0.72599275    -0.06300
C494        C  0.19440964  0.38856604  0.71168229    -0.17400
C495        C  0.19390250  0.39421281  0.66960966     0.10900
C496        C  0.16796841  0.36450756  0.64345829    -0.06200
C497        C  0.13711527  0.33996746  0.66042151    -0.17400
C498        C  0.13714833  0.33303114  0.70207474     0.10900
S499        S  0.22442738  0.43952922  0.65222278    -0.32400
S500        S  0.09642561  0.29585323  0.71901605    -0.32400
H501        H  0.10170473  0.29997617  0.76307491     0.28900
H502        H  0.20858721  0.43329760  0.61201130     0.28900
H503        H  0.21441386  0.41077185  0.73274664     0.19500
H504        H  0.11457765  0.32193906  0.63985477     0.19500
C505        C  0.11570940  0.20702122  0.77711792    -0.06300
C506        C  0.08119086  0.19296525  0.78042525    -0.17400
C507        C  0.05833674  0.15620928  0.78969714     0.10900
C508        C  0.06974013  0.13196129  0.79371671    -0.06200
C509        C  0.10444176  0.14616031  0.79004479    -0.17400
C510        C  0.12736586  0.18323431  0.78145454     0.10900
S511        S  0.01626431  0.14392220  0.80162306    -0.32400
S512        S  0.17149041  0.19939282  0.77789464    -0.32400
H513        H  0.18046197  0.23040394  0.75535463     0.28900
H514        H  0.01244423  0.12087586  0.83362780     0.28900
H515        H  0.07268650  0.21194567  0.77976080     0.19500
H516        H  0.11378611  0.12828338  0.79363449     0.19500
C517        C  0.36866136  0.44625234  0.82302012    -0.06300
C518        C  0.34771766  0.41248903  0.79766253    -0.17400
C519        C  0.31244402  0.39428671  0.79626499     0.10900
C520        C  0.29749680  0.41056093  0.81964756    -0.06200
C521        C  0.31794917  0.44264248  0.84731010    -0.17400
C522        C  0.35323409  0.46029819  0.84989664     0.10900
S523        S  0.28782336  0.35020053  0.76463103    -0.32400
S524        S  0.37676560  0.00107141  0.88699780    -0.32400
H525        H  0.39835435  0.99055431  0.90207152     0.28900
H526        H  0.26015765  0.33462040  0.79108805     0.28900
H527        H  0.35885247  0.40057362  0.77775776     0.19500
H528        H  0.30623998  0.45425045  0.86656913     0.19500
C529        C  0.11898643  0.41215202  0.83277754    -0.06300
C530        C  0.13195788  0.44051249  0.80484707    -0.17400
C531        C  0.11508830  0.45776166  0.79520452     0.10900
C532        C  0.08630753  0.44994676  0.81731230    -0.06200
C533        C  0.07508579  0.42463042  0.84881551    -0.17400
C534        C  0.09052893  0.40481793  0.85592008     0.10900
S535        S  0.13111827  0.48831171  0.75291050    -0.32400
S536        S  0.07210613  0.36986401  0.89325783    -0.32400
H537        H  0.07319976  0.34278190  0.86663649     0.28900
H538        H  0.09976778  0.48065821  0.73736148     0.28900
H539        H  0.15419614  0.44716967  0.78753957     0.19500
H540        H  0.05347045  0.41927708  0.86680111     0.19500
C541        C  0.10438155  0.20789919  0.57305684    -0.06300
C542        C  0.08454341  0.18828757  0.53542584    -0.17400
C543        C  0.06665046  0.14953275  0.52890660     0.10900
C544        C  0.06590010  0.12887762  0.56206290    -0.06200
C545        C  0.08428954  0.14789177  0.60062367    -0.17400
C546        C  0.10460598  0.18716495  0.60581204     0.10900
S547        S  0.04575008  0.12849026  0.97712839    -0.32400
S548        S  0.13243890  0.20867236  0.65271178    -0.32400
H549        H  0.16003007  0.23616823  0.63151002     0.28900
H550        H  0.01812698  0.09576458  0.99108370     0.28900
H551        H  0.08381471  0.20351325  0.00996730     0.19500
H552        H  0.08444316  0.13207451  0.62580628     0.19500
C553        C  0.37179696  0.44762791  0.58584428    -0.06300
C554        C  0.35304505  0.40974182  0.57088347    -0.17400
C555        C  0.31740977  0.38860337  0.57065442     0.10900
C556        C  0.30026747  0.40581167  0.58508606    -0.06200
C557        C  0.31915021  0.44245877  0.60418991    -0.17400
C558        C  0.35462925  0.46332535  0.60525143     0.10900
S559        S  0.29388325  0.33968562  0.05234234    -0.32400
S560        S  0.37660337  0.01020128  0.63079926    -0.32400
H561        H  0.40551853  0.01075948  0.64404782     0.28900
H562        H  0.32196172  0.33785721  0.54128465     0.28900
H563        H  0.36616186  0.39736902  0.55702650     0.19500
H564        H  0.30609604  0.45536321  0.61679196     0.19500
C565        C  0.07934999  0.43881534  0.51724476    -0.06300
C566        C  0.06726040  0.40889435  0.54251305    -0.17400
C567        C  0.08265708  0.38867344  0.54372380     0.10900
C568        C  0.11230791  0.39983806  0.52127410    -0.06200
C569        C  0.12313150  0.42814720  0.49375017    -0.17400
C570        C  0.10656188  0.44722376  0.49088115     0.10900
S571        S  0.06337694  0.34889508  0.57472153    -0.32400
S572        S  0.12348285  0.98454737  0.45655902    -0.32400
H573        H  0.09181763  0.97157506  0.43635391     0.28900
H574        H  0.07518440  0.32946916  0.55079928     0.28900
H575        H  0.04581347  0.40145946  0.56190598     0.19500
H576        H  0.14556768  0.43662967  0.47602696     0.19500
C577        C  0.38921423  0.10350840  0.72584465    -0.06300
C578        C  0.36919534  0.06565637  0.73321560    -0.17400
C579        C  0.38391827  0.04505863  0.73901484     0.10900
C580        C  0.41948102  0.06304993  0.73810413    -0.06200
C581        C  0.43902634  0.09996660  0.72736297    -0.17400
C582        C  0.42433089  0.12037299  0.72144302     0.10900
S583        S  0.35749403  0.99695136  0.75071179    -0.32400
S584        S  0.45215059  0.16872682  0.71218539    -0.32400
H585        H  0.43689900  0.18169694  0.74031465     0.28900
H586        H  0.32668562  0.99509231  0.75179222     0.28900
H587        H  0.34230445  0.05305024  0.73681064     0.19500
H588        H  0.46624684  0.11364132  0.72581092     0.19500
C589        C  0.40955693  0.32204572  0.78970553    -0.06300
C590        C  0.40056939  0.33993170  0.76197351    -0.17400
C591        C  0.42083441  0.37834575  0.75873609     0.10900
C592        C  0.44987594  0.40088184  0.78661611    -0.06200
C593        C  0.45710788  0.38332901  0.81721436    -0.17400
C594        C  0.43793829  0.34438435  0.81835694     0.10900
S595        S  0.40906437  0.39553511  0.71598941    -0.32400
S596        S  0.45264986  0.32508536  0.85476564    -0.32400
H597        H  0.45097157  0.29881293  0.82367686     0.28900
H598        H  0.44074511  0.41114007  0.69760862     0.28900
H599        H  0.37857281  0.32326452  0.74022464     0.19500
H600        H  0.47892048  0.39984394  0.83928102     0.19500
C601        C  0.22158269  0.11796854  0.75274986    -0.06300
C602        C  0.20186187  0.12552827  0.72704621    -0.17400
C603        C  0.16666290  0.10789918  0.73170240     0.10900
C604        C  0.15124790  0.08382708  0.76456336    -0.06200
C605        C  0.17109041  0.07619054  0.78953585    -0.17400
C606        C  0.20492623  0.09043586  0.78180297     0.10900
S607        S  0.14375891  0.11820108  0.69529716    -0.32400
S608        S  0.22409269  0.06914992  0.80692768    -0.32400
H609        H  0.24573155  0.07396362  0.77378620     0.28900
H610        H  0.11720190  0.11113331  0.72132442     0.28900
H611        H  0.21401915  0.14580372  0.70385140     0.19500
H612        H  0.15941073  0.05647689  0.81346677     0.19500
C613        C  0.43830639  0.09364833  0.02984611    -0.06300
C614        C  0.40525053  0.07581045  0.01149727    -0.17400
C615        C  0.38692784  0.09280729  0.01395247     0.10900
C616        C  0.40227161  0.12960036  0.03309499    -0.06200
C617        C  0.43492684  0.14736721  0.55240202    -0.17400
C618        C  0.45299375  0.12980764  0.05121837     0.10900
S619        S  0.34325657  0.06525557  0.99417570    -0.32400
S620        S  0.49481061  0.15544320  0.57653428    -0.32400
H621        H  0.50876048  0.14784528  0.54118407     0.28900
H622        H  0.33219370  0.08290470  0.02269035     0.28900
H623        H  0.39279418  0.04755165  0.99661232     0.19500
H624        H  0.44687182  0.17563683  0.56712120     0.19500
C625        C  0.41651946  0.32928224  0.47447874    -0.06300
C626        C  0.40091486  0.34842528  0.96625535    -0.17400
C627        C  0.41869697  0.38739754  0.97330728     0.10900
C628        C  0.45255887  0.40750322  0.49066164    -0.06200
C629        C  0.46893504  0.38833759  0.49437508    -0.17400
C630        C  0.45141460  0.34966386  0.48589539     0.10900
S631        S  0.39557592  0.40887727  0.96364282    -0.32400
S632        S  0.47396283  0.32722424  0.49404436    -0.32400
H633        H  0.45114823  0.29397019  0.46899722     0.28900
H634        H  0.41979652  0.43398413  0.93677452     0.28900
H635        H  0.37404529  0.33265111  0.95744312     0.19500
H636        H  0.49518729  0.40328739  0.50591540     0.19500
C637        C  0.15343964  0.08924338  0.53900426    -0.06300
C638        C  0.16674415  0.11414793  0.00713802    -0.17400
C639        C  0.20172767  0.13672710  0.00216661     0.10900
C640        C  0.22414702  0.13323836  0.52820325    -0.06200
C641        C  0.21096691  0.10931860  0.56104688    -0.17400
C642        C  0.17600841  0.08734812  0.56670367     0.10900
S643        S  0.21627812  0.17076824  0.96370574    -0.32400
S644        S  0.16177679  0.05589327  0.60801871    -0.32400
H645        H  0.13557066  0.02523712  0.58242751     0.28900
H646        H  0.24680644  0.19743273  0.98655097     0.28900
H647        H  0.14971839  0.11643080  0.98626588     0.19500
H648        H  0.22802034  0.10677270  0.58149646     0.19500
C649        C  0.34368219  0.17336381  0.92546844    -0.06300
C650        C  0.37585983  0.19262242  0.90840732    -0.17400
C651        C  0.37873232  0.19157517  0.86543737     0.10900
C652        C  0.34818407  0.17101964  0.84030277    -0.06200
C653        C  0.31944131  0.14163331  0.85760268    -0.17400
C654        C  0.31704410  0.14213612  0.90121813     0.10900
S655        S  0.42140506  0.21952784  0.84719271    -0.32400
S656        S  0.28443211  0.09995129  0.92253870    -0.32400
H657        H  0.30178006  0.10688065  0.96186632     0.28900
H658        H  0.41572791  0.20434807  0.80511427     0.28900
H659        H  0.39857273  0.21112600  0.92856016     0.19500
H660        H  0.29928229  0.11859331  0.83742692     0.19500
C661        C  0.36238097  0.23197537  0.59512248    -0.06300
C662        C  0.39044893  0.23631737  0.61581893    -0.17400
C663        C  0.38624359  0.22175637  0.65439641     0.10900
C664        C  0.35370313  0.20577901  0.67233192    -0.06200
C665        C  0.33196704  0.21628872  0.65755345    -0.17400
C666        C  0.33773428  0.23188203  0.61927559     0.10900
S667        S  0.42346807  0.22470119  0.67601325    -0.32400
S668        S  0.31576383  0.25290635  0.60172397    -0.32400
H669        H  0.29438204  0.24367965  0.63605647     0.28900
H670        H  0.42042129  0.23116323  0.71925846     0.28900
H671        H  0.41303541  0.24407834  0.59868188     0.19500
H672        H  0.31194925  0.21419301  0.67639861     0.19500
C673        C  0.35359289  0.71295655  0.05166601     0.29800
C674        C  0.34277040  0.68603924  0.46982908     0.29800
C675        C  0.31580344  0.68743958  0.03606569    -0.06400
C676        C  0.36882742  0.74211496  0.02014476    -0.07100
C677        C  0.36696359  0.68747440  0.03978500    -0.07000
C678        C  0.31004315  0.67435163  0.49323131    -0.06400
C679        C  0.36302688  0.72904133  0.47809020    -0.07100
C680        C  0.36128326  0.67438279  0.49776397    -0.07000
C681        C  0.27528407  0.65470536  0.48491993    -0.32400
N682        N  0.26006001  0.65330934  0.52194847     0.14100
C683        C  0.28450785  0.67225977  0.05337646    -0.32400
H684        H  0.27941715  0.67438400  0.08647412     0.16000
C685        C  0.37950794  0.76021872  0.45508882    -0.31400
N686        N  0.39558905  0.79104614  0.98315285     0.12800
C687        C  0.38902108  0.78024791  0.02296321    -0.31400
C688        C  0.37402392  0.65233553  0.49092653    -0.31700
N689        N  0.38672842  0.65040220  0.52829179     0.13300
H690        H  0.37386391  0.63838043  0.46079863     0.15900
C691        C  0.38279098  0.67184301  0.05864024    -0.31700
H692        H  0.39023454  0.67485532  0.09182738     0.15900
H693        H  0.39866980  0.79891247  0.05180718     0.15900
H694        H  0.26183880  0.64237272  0.45444866     0.16000
H695        H  0.38061048  0.76055783  0.42089165     0.15900
C696        C  0.34633529  0.67907167  0.29639383     0.29800
C697        C  0.34790102  0.69193227  0.21468158     0.29800
C698        C  0.31169246  0.66622841  0.27530609    -0.06400
C699        C  0.36714851  0.72054440  0.28821296    -0.07100
C700        C  0.35878381  0.65978734  0.26661629    -0.07000
C701        C  0.31183770  0.67136386  0.23240578    -0.06400
C702        C  0.36796907  0.72637069  0.24626257    -0.07100
C703        C  0.35982171  0.66612103  0.22447293    -0.07000
C704        C  0.27801881  0.65373816  0.21835620    -0.32400
N705        N  0.25820680  0.64010533  0.25228296     0.14100
C706        C  0.27898453  0.64986009  0.28729116    -0.32400
H707        H  0.27056893  0.64501733  0.31932483     0.16000
C708        C  0.38424892  0.76399041  0.24310990    -0.31400
N709        N  0.39297017  0.78198496  0.28251264     0.12800
C710        C  0.38174984  0.75550302  0.31079385    -0.31400
C711        C  0.36958680  0.64417958  0.20304389    -0.31700
N712        N  0.37504705  0.62578875  0.23210359     0.13300
H713        H  0.37284577  0.64203820  0.16924457     0.15900
C714        C  0.36793204  0.63468112  0.27084501    -0.31700
H715        H  0.37000083  0.62418339  0.30011722     0.15900
H716        H  0.38294494  0.76097782  0.34495965     0.15900
H717        H  0.26852803  0.65000876  0.18590965     0.16000
H718        H  0.38868695  0.77735872  0.21388318     0.15900
C719        C  0.11614334  0.56420344  0.03998085     0.76300
Tb720      Tb  0.47252057  0.51949192  0.04274660     1.80700
O721        O  0.09950411  0.55443442  0.07321508    -0.51700
O722        O  0.06334572  0.97542966  0.05982745    -0.59200
C723        C  0.04683462  0.58785169  0.05643743     0.92100
O724        O  0.47787404  0.57808847  0.05527590    -0.58700
Tb725      Tb  0.04547267  0.51394610  0.03752009     1.78100
O726        O  0.42860433  0.96264233  0.06960018    -0.59200
O727        O  0.99281900  0.95795323  0.03915812    -0.78000
O728        O  0.05306806  0.57138982  0.02690615    -0.77300
O729        O  0.03005469  0.51458014  0.46164971    -0.62600
C730        C  0.47055478  0.94684269  0.00929824     0.91700
O731        O  0.48603094  0.51396928  0.11777178    -0.74500
C732        C  0.40723025  0.47175197  0.07337872     0.75100
C733        C  0.06601739  0.96320631  0.02354999     0.76100
O734        O  0.09763582  0.54985336  0.50640658    -0.59800
O735        O  0.05688476  0.97468062  0.99406598    -0.51700
O736        O  0.48707031  0.52260605  0.46445559    -0.77800
O737        O  0.03404747  0.51528788  0.11635631    -0.61800
C738        C  0.01004993  0.51406906  0.13872934     0.89900
C739        C  0.00859960  0.51921689  0.44135826     0.91100
C740        C  0.45373622  0.57111656  0.53049503     0.75500
O741        O  0.41843228  0.50373972  0.06247332    -0.51100
O742        O  0.44086190  0.03975621  0.50970777    -0.52300
O743        O  0.46359387  0.96935605  0.99684257    -0.65100
O744        O  0.02218112  0.56861265  0.07887778    -0.66300
C745        C  0.11475891  0.56354317  0.27352684     0.76300
Tb746      Tb  0.47075660  0.51408810  0.28598888     1.80700
O747        O  0.10495605  0.55711636  0.31084375    -0.51700
O748        O  0.07958603  0.00105204  0.33219812    -0.59200
C749        C  0.04610534  0.59143195  0.29768765     0.92100
O750        O  0.46081956  0.56212274  0.28200649    -0.58700
Tb751      Tb  0.04673420  0.51694829  0.29412286     1.78100
O752        O  0.41736666  0.95840466  0.28494368    -0.59200
O753        O  0.99846575  0.96067945  0.31067610    -0.78000
O754        O  0.05517735  0.57423589  0.31916363    -0.77300
O755        O  0.03256900  0.51406991  0.21478127    -0.62600
C756        C  0.47284203  0.94217279  0.28538085     0.91700
O757        O  0.48551824  0.51828464  0.36535038    -0.74500
C758        C  0.40526357  0.46837518  0.31452994     0.75100
C759        C  0.07046173  0.97100446  0.31058028     0.76100
O760        O  0.09047254  0.54789345  0.24581077    -0.59800
O761        O  0.04885650  0.96292882  0.28085238    -0.51700
O762        O  0.48487424  0.51297427  0.21037015    -0.77800
O763        O  0.03371987  0.52050905  0.36974210    -0.61800
C764        C  0.00907804  0.51956241  0.38927963     0.89900
C765        C  0.00939565  0.51357893  0.19084747     0.94500
C766        C  0.43730930  0.54605970  0.25347362     0.75500
O767        O  0.42671593  0.50043333  0.33210060    -0.51100
O768        O  0.43050162  0.01415564  0.24047036    -0.52300
O769        O  0.46712372  0.95963702  0.25990841    -0.65100
O770        O  0.01772064  0.57388165  0.27740229    -0.66300
C771        C  0.17847456  0.83479959  0.02029225     0.29800
C772        C  0.17350238  0.85322384  0.10106281     0.29800
C773        C  0.16284561  0.85871372  0.02713870    -0.06400
C774        C  0.15824531  0.80232859  0.04690937    -0.07100
C775        C  0.21280142  0.85854992  0.04571015    -0.07000
C776        C  0.16044937  0.86751693  0.06878638    -0.06400
C777        C  0.15456251  0.81044442  0.08828974    -0.07100
C778        C  0.21007919  0.86714949  0.08822812    -0.07000
C779        C  0.14312903  0.88501606  0.07091699    -0.32400
N780        N  0.13377882  0.88651659  0.03099561     0.14100
C781        C  0.14635895  0.87134633  0.00359215    -0.32400
H782        H  0.14215727  0.86795881  0.96943794     0.16000
C783        C  0.13426910  0.77572817  0.10486357    -0.31400
N784        N  0.12677756  0.74803401  0.07370409     0.12800
C785        C  0.14206722  0.76464453  0.03863690    -0.31400
C786        C  0.24196893  0.88363063  0.10795587    -0.31700
N787        N  0.26411529  0.88743577  0.07815712     0.13300
H788        H  0.24870866  0.89171597  0.14153607     0.15900
C789        C  0.24678190  0.87332315  0.03989240    -0.31700
H790        H  0.25849554  0.87456458  0.01017410     0.15900
H791        H  0.14122988  0.75016989  0.00861321     0.15900
H792        H  0.13645694  0.89451798  0.09964255     0.16000
H793        H  0.12521908  0.77092569  0.13667430     0.15900
C794        C  0.17269786  0.84699909  0.26923365     0.29800
C795        C  0.17318586  0.83557835  0.35070990     0.29800
C796        C  0.15263536  0.85764140  0.29748155    -0.06400
C797        C  0.15981726  0.80669718  0.27702103    -0.07100
C798        C  0.20842946  0.86885458  0.29222469    -0.07000
C799        C  0.15301761  0.85301042  0.33971761    -0.06400
C800        C  0.16055244  0.80146923  0.31910515    -0.07100
C801        C  0.20833030  0.86357853  0.33505036    -0.07000
C802        C  0.14090107  0.87354539  0.35981090    -0.32400
N803        N  0.13098503  0.88733571  0.32933592     0.14100
C804        C  0.13827053  0.87742722  0.29138752    -0.32400
H805        H  0.13516098  0.88599875  0.26120321     0.16000
C806        C  0.14809974  0.76455132  0.32242318    -0.31400
N807        N  0.13871988  0.74658742  0.28310416     0.12800
C808        C  0.14576010  0.77197818  0.25467008    -0.31400
C809        C  0.24147718  0.88124297  0.35015177    -0.31700
N810        N  0.26162096  0.89433761  0.31700091     0.13300
H811        H  0.25058148  0.88258275  0.38215706     0.15900
C812        C  0.24191708  0.88657400  0.28128316    -0.31700
H813        H  0.25124613  0.89180036  0.24959898     0.15900
H814        H  0.13932812  0.76533703  0.22089894     0.15900
H815        H  0.14093890  0.87945937  0.39371040     0.16000
H816        H  0.14346987  0.75105330  0.35159205     0.15900
C817        C  0.17413944  0.81895373  0.47634013    -0.06300
C818        C  0.14205101  0.80413092  0.45661851    -0.17400
C819        C  0.13983822  0.80682785  0.41412869     0.10900
C820        C  0.17064489  0.82362376  0.39314884    -0.06200
C821        C  0.19705143  0.82113454  0.40987530    -0.17400
C822        C  0.19906419  0.81867248  0.45280810     0.10900
S823        S  0.09804021  0.79053613  0.39162233    -0.32400
S824        S  0.22636750  0.80491307  0.47231289    -0.32400
H825        H  0.21041369  0.79336829  0.01081142     0.28900
H826        H  0.10240749  0.78125579  0.34982305     0.28900
H827        H  0.12000614  0.79604099  0.47511555     0.19500
H828        H  0.21546505  0.82066172  0.38980166     0.19500
C829        C  0.16877333  0.85446776  0.22599206    -0.06300
C830        C  0.19441146  0.88856590  0.21168220    -0.17400
C831        C  0.19390335  0.89421448  0.16961039     0.10900
C832        C  0.16796869  0.86451029  0.14345860    -0.06200
C833        C  0.13711596  0.83996968  0.16042211    -0.17400
C834        C  0.13714983  0.83303148  0.20207445     0.10900
S835        S  0.22442768  0.93953154  0.15222462    -0.32400
S836        S  0.09642741  0.79585258  0.21901533    -0.32400
H837        H  0.10170596  0.79997608  0.26307432     0.28900
H838        H  0.20858722  0.93330021  0.11201338     0.28900
H839        H  0.21441671  0.91077137  0.23274708     0.19500
H840        H  0.11457802  0.82194167  0.13985538     0.19500
C841        C  0.11570966  0.70702010  0.27711669    -0.06300
C842        C  0.08119141  0.69296437  0.28042743    -0.17400
C843        C  0.05833771  0.65620827  0.28969915     0.10900
C844        C  0.06974105  0.63195994  0.29371516    -0.06200
C845        C  0.10444241  0.64615853  0.29003992    -0.17400
C846        C  0.12736614  0.68323280  0.28144974     0.10900
S847        S  0.01626580  0.64392098  0.30162871    -0.32400
S848        S  0.17149035  0.69939097  0.27788568    -0.32400
H849        H  0.18046151  0.73040363  0.25534886     0.28900
H850        H  0.01244664  0.62087339  0.33363151     0.28900
H851        H  0.07268718  0.71194501  0.27976563     0.19500
H852        H  0.11378644  0.62828181  0.29362705     0.19500
C853        C  0.36866176  0.94625012  0.32302406    -0.06300
C854        C  0.34771829  0.91248640  0.29766731    -0.17400
C855        C  0.31244476  0.89428388  0.29626921     0.10900
C856        C  0.29749728  0.91055835  0.31965053    -0.06200
C857        C  0.31794923  0.94264011  0.34731311    -0.17400
C858        C  0.35323422  0.96029592  0.34990013     0.10900
S859        S  0.28782447  0.85019719  0.26463626    -0.32400
S860        S  0.37676529  0.50107378  0.38699179    -0.32400
H861        H  0.39835297  0.49055693  0.40207006     0.28900
H862        H  0.26015824  0.83461770  0.29109248     0.28900
H863        H  0.35885365  0.90057043  0.27776253     0.19500
H864        H  0.30624007  0.95424771  0.36657117     0.19500
C865        C  0.11898497  0.91214946  0.33277505    -0.06300
C866        C  0.13195634  0.94051022  0.30484484    -0.17400
C867        C  0.11508677  0.95775960  0.29520288     0.10900
C868        C  0.08630589  0.94994433  0.31731061    -0.06200
C869        C  0.07508384  0.92462726  0.34881320    -0.17400
C870        C  0.09052725  0.90481487  0.35591739     0.10900
S871        S  0.13111740  0.98831078  0.25290981    -0.32400
S872        S  0.07210435  0.86986042  0.39325456    -0.32400
H873        H  0.07319830  0.84277876  0.36663273     0.28900
H874        H  0.09976807  0.98066251  0.23736380     0.28900
H875        H  0.15419466  0.94716787  0.28753767     0.19500
H876        H  0.05346880  0.91927363  0.36679831     0.19500
C877        C  0.10438235  0.70790105  0.07305873    -0.06300
C878        C  0.08454302  0.68828972  0.03542826    -0.17400
C879        C  0.06664995  0.64953475  0.02890886     0.10900
C880        C  0.06590093  0.62887935  0.06206410    -0.06200
C881        C  0.08429163  0.64789343  0.10062425    -0.17400
C882        C  0.10460794  0.68716665  0.10581286     0.10900
S883        S  0.04574854  0.62849053  0.47712831    -0.32400
S884        S  0.13244225  0.70867398  0.15271142    -0.32400
H885        H  0.16003244  0.73617061  0.13150911     0.28900
H886        H  0.01812592  0.59576494  0.49108452     0.28900
H887        H  0.08381408  0.70351424  0.50996630     0.19500
H888        H  0.08444630  0.63207607  0.12580615     0.19500
C889        C  0.37179733  0.94762746  0.08584609    -0.06300
C890        C  0.35304483  0.90974194  0.07088349    -0.17400
C891        C  0.31740964  0.88860403  0.07065433     0.10900
C892        C  0.30026782  0.90581251  0.08508757    -0.06200
C893        C  0.31915110  0.94245891  0.10419354    -0.17400
C894        C  0.35463014  0.96332477  0.10525518     0.10900
S895        S  0.29388167  0.83968542  0.55233864    -0.32400
S896        S  0.37660318  0.51020392  0.13079473    -0.32400
H897        H  0.40551844  0.51076299  0.14404495     0.28900
H898        H  0.32196070  0.83785816  0.04128105     0.28900
H899        H  0.36616158  0.89736878  0.05702471     0.19500
H900        H  0.30609747  0.95536342  0.11679693     0.19500
C901        C  0.07934800  0.93881331  0.01724133    -0.06300
C902        C  0.06725843  0.90889202  0.04250914    -0.17400
C903        C  0.08265568  0.88867176  0.04372032     0.10900
C904        C  0.11230707  0.89983739  0.02127150    -0.06200
C905        C  0.12313021  0.92814630  0.99374742    -0.17400
C906        C  0.10656014  0.94722227  0.99087788     0.10900
S907        S  0.06337607  0.84889337  0.07471798    -0.32400
S908        S  0.12348733  0.48455124  0.95656159    -0.32400
H909        H  0.09182250  0.47157815  0.93635479     0.28900
H910        H  0.07518505  0.82946854  0.05079672     0.28900
H911        H  0.04581104  0.90145662  0.06190198     0.19500
H912        H  0.14556723  0.93662952  0.97602426     0.19500
C913        C  0.38921193  0.60350681  0.22584752    -0.06300
C914        C  0.36919349  0.56565483  0.23321872    -0.17400
C915        C  0.38391687  0.54505747  0.23901758     0.10900
C916        C  0.41947970  0.56304925  0.23810673    -0.06200
C917        C  0.43902454  0.59996600  0.22736598    -0.17400
C918        C  0.42432862  0.62037184  0.22144582     0.10900
S919        S  0.35749307  0.49694989  0.25071359    -0.32400
S920        S  0.45214757  0.66872537  0.21218694    -0.32400
H921        H  0.43689645  0.68169548  0.24031703     0.28900
H922        H  0.32668568  0.49509264  0.25180312     0.28900
H923        H  0.34230255  0.55304830  0.23681361     0.19500
H924        H  0.46624551  0.61364138  0.22581392     0.19500
C925        C  0.40955656  0.82204493  0.28970548    -0.06300
C926        C  0.40056910  0.83993077  0.26197316    -0.17400
C927        C  0.42083418  0.87834478  0.25873554     0.10900
C928        C  0.44987575  0.90088083  0.28661551    -0.06200
C929        C  0.45710771  0.88332817  0.31721402    -0.17400
C930        C  0.43793788  0.84438352  0.31835681     0.10900
S931        S  0.40906413  0.89553414  0.21598880    -0.32400
S932        S  0.45264925  0.82508448  0.35476565    -0.32400
H933        H  0.45097087  0.79881194  0.32367692     0.28900
H934        H  0.44074487  0.91113909  0.19760798     0.28900
H935        H  0.37857248  0.82326349  0.24022426     0.19500
H936        H  0.47891992  0.89984280  0.33928026     0.19500
C937        C  0.22158091  0.61796584  0.25274830    -0.06300
C938        C  0.20185987  0.62552466  0.22704376    -0.17400
C939        C  0.16666073  0.60789478  0.23169932     0.10900
C940        C  0.15124581  0.58382279  0.26456037    -0.06200
C941        C  0.17108843  0.57618668  0.28953323    -0.17400
C942        C  0.20492452  0.59043289  0.28180109     0.10900
S943        S  0.14375651  0.61819546  0.19529296    -0.32400
S944        S  0.22409149  0.56914790  0.30692664    -0.32400
H945        H  0.24573129  0.57396270  0.27378599     0.28900
H946        H  0.11719849  0.61112644  0.22131891     0.28900
H947        H  0.21401698  0.64579997  0.20384899     0.19500
H948        H  0.15940878  0.55647299  0.31346401     0.19500
C949        C  0.43830694  0.59364967  0.52985029    -0.06300
C950        C  0.40525031  0.57581097  0.51150379    -0.17400
C951        C  0.38692756  0.59280766  0.51395976     0.10900
C952        C  0.40227204  0.62960142  0.53310015    -0.06200
C953        C  0.43492741  0.64736811  0.05240620    -0.17400
C954        C  0.45299480  0.62980942  0.55122162     0.10900
S955        S  0.34325550  0.56525522  0.49418638    -0.32400
S956        S  0.49481197  0.65544469  0.07653553    -0.32400
H957        H  0.50876076  0.64784713  0.04118386     0.28900
H958        H  0.33219414  0.58290613  0.52270072     0.28900
H959        H  0.39279347  0.54755157  0.49662005     0.19500
H960        H  0.44687186  0.67563635  0.06712400     0.19500
C961        C  0.41651872  0.82928157  0.97447696    -0.06300
C962        C  0.40091601  0.84842464  0.46625046    -0.17400
C963        C  0.41869802  0.88739694  0.47330253     0.10900
C964        C  0.45255832  0.90750261  0.99065960    -0.06200
C965        C  0.46893436  0.88833688  0.99437201    -0.17400
C966        C  0.45141404  0.84966326  0.98589255     0.10900
S967        S  0.39557837  0.90887718  0.46363195    -0.32400
S968        S  0.47396238  0.82722370  0.99404093    -0.32400
H969        H  0.45114745  0.79396944  0.96899435     0.28900
H970        H  0.41980213  0.93398472  0.43676693     0.28900
H971        H  0.37404679  0.83265050  0.45743493     0.19500
H972        H  0.49518792  0.90328734  0.00591220     0.19500
C973        C  0.15344055  0.58924658  0.03900726    -0.06300
C974        C  0.16674484  0.61415029  0.50714100    -0.17400
C975        C  0.20172839  0.63672889  0.50216952     0.10900
C976        C  0.22414791  0.63323976  0.02820590    -0.06200
C977        C  0.21096759  0.60932218  0.06105151    -0.17400
C978        C  0.17600908  0.58735256  0.06670847     0.10900
S979        S  0.21627925  0.67077007  0.46370857    -0.32400
S980        S  0.16177705  0.55590016  0.10802602    -0.32400
H981        H  0.13557144  0.52524264  0.08243579     0.28900
H982        H  0.24680815  0.69743390  0.48655309     0.28900
H983        H  0.14971938  0.61643364  0.48626905     0.19500
H984        H  0.22802094  0.60677712  0.08150267     0.19500
C985        C  0.34368163  0.67336200  0.42547049    -0.06300
C986        C  0.37585885  0.69262014  0.40840857    -0.17400
C987        C  0.37873070  0.69157406  0.36543849     0.10900
C988        C  0.34818202  0.67101940  0.34030432    -0.06200
C989        C  0.31943935  0.64163325  0.35760451    -0.17400
C990        C  0.31704270  0.64213522  0.40121999     0.10900
S991        S  0.42140325  0.71952675  0.34719326    -0.32400
S992        S  0.28443088  0.59995007  0.42254026    -0.32400
H993        H  0.30177905  0.60687933  0.46186772     0.28900
H994        H  0.41572577  0.70434722  0.30511469     0.28900
H995        H  0.39857257  0.71112370  0.42856163     0.19500
H996        H  0.29927960  0.61859305  0.33742838     0.19500
C997        C  0.36238194  0.73197719  0.09512408    -0.06300
C998        C  0.39044936  0.73631849  0.11582114    -0.17400
C999        C  0.38624281  0.72175566  0.15439773     0.10900
C1000       C  0.35370204  0.70577810  0.17233253    -0.06200
C1001       C  0.33196660  0.71628864  0.15755396    -0.17400
C1002       C  0.33773496  0.73188343  0.11927690     0.10900
S1003       S  0.42346644  0.72469876  0.17601450    -0.32400
S1004       S  0.31576534  0.75290866  0.10172546    -0.32400
H1005       H  0.29438355  0.74368221  0.13605794     0.28900
H1006       H  0.42041987  0.73116128  0.21925966     0.28900
H1007       H  0.41303599  0.74407976  0.09868484     0.19500
H1008       H  0.31194816  0.71419250  0.17639890     0.19500
C1009       C  0.35359257  0.71295657  0.55166614     0.29800
C1010       C  0.34277080  0.68603924  0.96982892     0.29800
C1011       C  0.31580313  0.68743966  0.53606593    -0.06400
C1012       C  0.36882707  0.74211494  0.52014486    -0.07100
C1013       C  0.36696327  0.68747445  0.53978509    -0.07000
C1014       C  0.31004351  0.67435146  0.99323107    -0.06400
C1015       C  0.36302719  0.72904132  0.97809008    -0.07100
C1016       C  0.36128360  0.67438279  0.99776381    -0.07000
C1017       C  0.27528446  0.65470508  0.98491965    -0.32400
N1018       N  0.26006031  0.65330912  0.02194808     0.14100
C1019       C  0.28450757  0.67225982  0.55337687    -0.32400
H1020       H  0.27941698  0.67438385  0.58647440     0.16000
C1021       C  0.37950805  0.76021867  0.95508890    -0.31400
N1022       N  0.39558901  0.79104619  0.48315320     0.12800
C1023       C  0.38902075  0.78024779  0.52296333    -0.31400
C1024       C  0.37402395  0.65233527  0.99092636    -0.31700
N1025       N  0.38672826  0.65040168  0.02829169     0.13300
H1026       H  0.37386391  0.63838017  0.96079837     0.15900
C1027       C  0.38279105  0.67184346  0.55864066    -0.31700
H1028       H  0.39023436  0.67485580  0.59182617     0.15900
H1029       H  0.39866961  0.79891262  0.55180782     0.15900
H1030       H  0.26183919  0.64237238  0.95444822     0.16000
H1031       H  0.38061044  0.76055765  0.92089018     0.15900
C1032       C  0.34633718  0.67907309  0.79639407     0.29800
C1033       C  0.34790289  0.69193452  0.71468219     0.29800
C1034       C  0.31169433  0.66623005  0.77530650    -0.06400
C1035       C  0.36715048  0.72054599  0.78821379    -0.07100
C1036       C  0.35878585  0.65978918  0.76661606    -0.07000
C1037       C  0.31183952  0.67136577  0.73240639    -0.06400
C1038       C  0.36797096  0.72637268  0.74626350    -0.07100
C1039       C  0.35982377  0.66612331  0.72447290    -0.07000
C1040       C  0.27802049  0.65374021  0.71835685    -0.32400
N1041       N  0.25820851  0.64010732  0.75228375     0.14100
C1042       C  0.27898639  0.64986189  0.78729183    -0.32400
H1043       H  0.27057105  0.64501936  0.81932517     0.16000
C1044       C  0.38425090  0.76399250  0.74311116    -0.31400
N1045       N  0.39297218  0.78198664  0.78251428     0.12800
C1046       C  0.38175193  0.75550446  0.81079483    -0.31400
C1047       C  0.36958930  0.64418241  0.70304337    -0.31700
N1048       N  0.37504969  0.62579143  0.73210270     0.13300
H1049       H  0.37284831  0.64204141  0.66924433     0.15900
C1050       C  0.36793440  0.63468312  0.77084439    -0.31700
H1051       H  0.37000305  0.62418521  0.80011570     0.15900
H1052       H  0.38294719  0.76097920  0.84496204     0.15900
H1053       H  0.26852984  0.65001117  0.68591104     0.16000
H1054       H  0.38868875  0.77736086  0.71388516     0.15900
C1055       C  0.11614291  0.56420299  0.53998082     0.76300
Tb1056     Tb  0.47252004  0.51949152  0.54274640     1.80700
O1057       O  0.09950388  0.55443301  0.57321510    -0.51700
O1058       O  0.06334709  0.97543076  0.55982784    -0.59200
C1059       C  0.04683430  0.58785132  0.55643696     0.92100
O1060       O  0.47787229  0.57808723  0.55527941    -0.58700
Tb1061     Tb  0.04547216  0.51394566  0.53752044     1.78100
O1062       O  0.42860375  0.96264219  0.56959989    -0.59200
O1063       O  0.99281874  0.95795337  0.53915944    -0.78000
O1064       O  0.05306764  0.57138922  0.52690590    -0.77300
O1065       O  0.03005531  0.51458095  0.96164947    -0.62600
C1066       C  0.47055424  0.94684258  0.50929925     0.91700
O1067       O  0.48603065  0.51396933  0.61777183    -0.74500
C1068       C  0.40722934  0.47175093  0.57337721     0.75100
C1069       C  0.06601667  0.96320556  0.52355040     0.76100
O1070       O  0.09763650  0.54985280  0.00640651    -0.59800
O1071       O  0.05688221  0.97467817  0.49406645    -0.51700
O1072       O  0.48707052  0.52260657  0.96445575    -0.77800
O1073       O  0.03404746  0.51528844  0.61635660    -0.61800
C1074       C  0.01004996  0.51406978  0.63872957     0.89900
C1075       C  0.00860007  0.51921748  0.94135807     0.91100
C1076       C  0.45373630  0.57111626  0.03049365     0.75500
O1077       O  0.41843036  0.50373751  0.56246863    -0.51100
O1078       O  0.44086187  0.03975602  0.00970823    -0.52300
O1079       O  0.46359325  0.96935579  0.49684322    -0.65100
O1080       O  0.02218081  0.56861261  0.57887745    -0.66300
C1081       C  0.11476027  0.56354557  0.77352731     0.76300
Tb1082     Tb  0.47075718  0.51408945  0.78598909     1.80700
O1083       O  0.10495712  0.55711867  0.81084411    -0.51700
O1084       O  0.07958780  0.00105469  0.83219880    -0.59200
C1085       C  0.04610553  0.59143337  0.79768803     0.92100
O1086       O  0.46082077  0.56212443  0.78200615    -0.58700
Tb1087     Tb  0.04673529  0.51695002  0.79412269     1.78100
O1088       O  0.41736659  0.95840663  0.78494132    -0.59200
O1089       O  0.99846710  0.96068111  0.81067623    -0.78000
O1090       O  0.05517770  0.57423724  0.81916368    -0.77300
O1091       O  0.03256943  0.51407109  0.71478129    -0.62600
C1092       C  0.47284282  0.94217428  0.78538201     0.91700
O1093       O  0.48551856  0.51828555  0.86535061    -0.74500
C1094       C  0.40526343  0.46837705  0.81452902     0.75100
C1095       C  0.07046343  0.97100682  0.81058160     0.76100
O1096       O  0.09047405  0.54789564  0.74581103    -0.59800
O1097       O  0.04885799  0.96293065  0.78085378    -0.51700
O1098       O  0.48487467  0.51297539  0.71037036    -0.77800
O1099       O  0.03372052  0.52051016  0.86974188    -0.61800
C1100       C  0.00907853  0.51956315  0.88927947     0.89900
C1101       C  0.00939597  0.51358000  0.69084766     0.94500
C1102       C  0.43731082  0.54606157  0.75347288     0.75500
O1103       O  0.42671590  0.50043505  0.83209990    -0.51100
O1104       O  0.43050380  0.01415843  0.74046964    -0.52300
O1105       O  0.46712424  0.95963816  0.75990939    -0.65100
O1106       O  0.01772084  0.57388314  0.77740268    -0.66300
C1107       C  0.17847409  0.83479943  0.52029200     0.29800
C1108       C  0.17350168  0.85322299  0.60106273     0.29800
C1109       C  0.16284508  0.85871345  0.52713876    -0.06400
C1110       C  0.15824476  0.80232821  0.54690879    -0.07100
C1111       C  0.21280088  0.85854955  0.54571013    -0.07000
C1112       C  0.16044865  0.86751624  0.56878652    -0.06400
C1113       C  0.15456188  0.81044375  0.58828924    -0.07100
C1114       C  0.21007853  0.86714870  0.58822815    -0.07000
C1115       C  0.14312786  0.88501479  0.57091727    -0.32400
N1116       N  0.13377764  0.88651554  0.53099609     0.14100
C1117       C  0.14635816  0.87134584  0.50359223    -0.32400
H1118       H  0.14215666  0.86795873  0.46943885     0.16000
C1119       C  0.13426850  0.77572746  0.60486273    -0.31400
N1120       N  0.12677711  0.74803348  0.57370322     0.12800
C1121       C  0.14206679  0.76464424  0.53863612    -0.31400
C1122       C  0.24196828  0.88362969  0.60795626    -0.31700
N1123       N  0.26411470  0.88743513  0.57815722     0.13300
H1124       H  0.24870766  0.89171447  0.64153522     0.15900
C1125       C  0.24678142  0.87332286  0.53989238    -0.31700
H1126       H  0.25849493  0.87456452  0.51017453     0.15900
H1127       H  0.14122958  0.75016968  0.50861208     0.15900
H1128       H  0.13645546  0.89451650  0.59964344     0.16000
H1129       H  0.12521824  0.77092477  0.63667382     0.15900
C1130       C  0.17269726  0.84700021  0.76923449     0.29800
C1131       C  0.17318619  0.83557967  0.85071066     0.29800
C1132       C  0.15263403  0.85764130  0.79748256    -0.06400
C1133       C  0.15981789  0.80669859  0.77702171    -0.07100
C1134       C  0.20842898  0.86885685  0.79222539    -0.07000
C1135       C  0.15301683  0.85301050  0.83971864    -0.06400
C1136       C  0.16055353  0.80147076  0.81910577    -0.07100
C1137       C  0.20833028  0.86358079  0.83505104    -0.07000
C1138       C  0.14090133  0.87354630  0.85981216    -0.32400
N1139       N  0.13098491  0.88733650  0.82933787     0.14100
C1140       C  0.13826953  0.87742759  0.79138890    -0.32400
H1141       H  0.13516019  0.88599933  0.76120561     0.16000
C1142       C  0.14810100  0.76455282  0.82242393    -0.31400
N1143       N  0.13872073  0.74658887  0.78310478     0.12800
C1144       C  0.14576065  0.77197958  0.75467091    -0.31400
C1145       C  0.24147733  0.88124492  0.85015192    -0.31700
N1146       N  0.26162071  0.89433931  0.81700046     0.13300
H1147       H  0.25058174  0.88258434  0.88215616     0.15900
C1148       C  0.24191638  0.88657573  0.78128337    -0.31700
H1149       H  0.25124520  0.89180175  0.74959806     0.15900
H1150       H  0.13932796  0.76533816  0.72089916     0.15900
H1151       H  0.14094023  0.87946123  0.89371306     0.16000
H1152       H  0.14347133  0.75105519  0.85159201     0.15900
C1153       C  0.17413988  0.81895358  0.97634051    -0.06300
C1154       C  0.14205150  0.80413071  0.95661890    -0.17400
C1155       C  0.13983870  0.80682823  0.91412929     0.10900
C1156       C  0.17064548  0.82362489  0.89314948    -0.06200
C1157       C  0.19705214  0.82113586  0.90987567    -0.17400
C1158       C  0.19906497  0.81867323  0.95280823     0.10900
S1159       S  0.09804060  0.79053624  0.89162303    -0.32400
S1160       S  0.22636830  0.80491362  0.97231233    -0.32400
H1161       H  0.21041287  0.79336804  0.51081202     0.28900
H1162       H  0.10240789  0.78125555  0.84982389     0.28900
H1163       H  0.12000633  0.79604040  0.97511624     0.19500
H1164       H  0.21546640  0.82066358  0.88980130     0.19500
C1165       C  0.16877231  0.85446855  0.72599287    -0.06300
C1166       C  0.19441024  0.88856628  0.71168223    -0.17400
C1167       C  0.19390234  0.89421394  0.66961013     0.10900
C1168       C  0.16796798  0.86450904  0.64345870    -0.06200
C1169       C  0.13711511  0.83996833  0.66042219    -0.17400
C1170       C  0.13714895  0.83303151  0.70207520     0.10900
S1171       S  0.22442669  0.93953063  0.65222344    -0.32400
S1172       S  0.09642660  0.79585295  0.71901664    -0.32400
H1173       H  0.10170572  0.79997536  0.76307547     0.28900
H1174       H  0.20858605  0.93329901  0.61201229     0.28900
H1175       H  0.21441575  0.91077265  0.73274729     0.19500
H1176       H  0.11457799  0.82194043  0.63985627     0.19500
C1177       C  0.11571020  0.70702154  0.77711768    -0.06300
C1178       C  0.08119193  0.69296614  0.78042843    -0.17400
C1179       C  0.05833804  0.65620988  0.78969993     0.10900
C1180       C  0.06974122  0.63196137  0.79371580    -0.06200
C1181       C  0.10444248  0.64615983  0.79004064    -0.17400
C1182       C  0.12736639  0.68323401  0.78145071     0.10900
S1183       S  0.01626618  0.64392277  0.80162970    -0.32400
S1184       S  0.17149045  0.69939169  0.77788669    -0.32400
H1185       H  0.18046165  0.73040398  0.75534918     0.28900
H1186       H  0.01244689  0.62087487  0.83363220     0.28900
H1187       H  0.07268811  0.71194644  0.77976675     0.19500
H1188       H  0.11378653  0.62828264  0.79362766     0.19500
C1189       C  0.36866161  0.94625146  0.82302206    -0.06300
C1190       C  0.34771797  0.91248864  0.79766381    -0.17400
C1191       C  0.31244441  0.89428626  0.79626605     0.10900
C1192       C  0.29749705  0.91055987  0.81964951    -0.06200
C1193       C  0.31794928  0.94264068  0.84731319    -0.17400
C1194       C  0.35323424  0.96029647  0.84989975     0.10900
S1195       S  0.28782398  0.85020072  0.76463096    -0.32400
S1196       S  0.37676558  0.50107464  0.88699249    -0.32400
H1197       H  0.39835309  0.49055714  0.90206962     0.28900
H1198       H  0.26015808  0.83461993  0.79108765     0.28900
H1199       H  0.35885302  0.90057343  0.77775800     0.19500
H1200       H  0.30624001  0.95424799  0.86657301     0.19500
C1201       C  0.11898573  0.91215104  0.83277747    -0.06300
C1202       C  0.13195785  0.94051227  0.80484807    -0.17400
C1203       C  0.11508882  0.95776211  0.79520573     0.10900
C1204       C  0.08630757  0.94994677  0.81731268    -0.06200
C1205       C  0.07508467  0.92462915  0.84881467    -0.17400
C1206       C  0.09052755  0.90481622  0.85591890     0.10900
S1207       S  0.13112001  0.98831325  0.75291274    -0.32400
S1208       S  0.07210366  0.86986099  0.89325500    -0.32400
H1209       H  0.07319828  0.84277976  0.86663320     0.28900
H1210       H  0.09977085  0.98066508  0.73736615     0.28900
H1211       H  0.15419679  0.94716983  0.78754088     0.19500
H1212       H  0.05346924  0.91927533  0.86679915     0.19500
C1213       C  0.10438204  0.70790053  0.57305772    -0.06300
C1214       C  0.08454320  0.68828899  0.53542716    -0.17400
C1215       C  0.06665024  0.64953417  0.52890769     0.10900
C1216       C  0.06590078  0.62887891  0.56206333    -0.06200
C1217       C  0.08429093  0.64789297  0.60062374    -0.17400
C1218       C  0.10460717  0.68716617  0.60581232     0.10900
S1219       S  0.04574765  0.62849148  0.97712966    -0.32400
S1220       S  0.13244083  0.70867348  0.65271145    -0.32400
H1221       H  0.16003134  0.73617008  0.63150956     0.28900
H1222       H  0.01812602  0.59576488  0.99108545     0.28900
H1223       H  0.08381367  0.70351439  0.00996879     0.19500
H1224       H  0.08444519  0.63207574  0.62580572     0.19500
C1225       C  0.37179683  0.94762731  0.58584617    -0.06300
C1226       C  0.35304448  0.90974190  0.57088284    -0.17400
C1227       C  0.31740924  0.88860383  0.57065375     0.10900
C1228       C  0.30026727  0.90581194  0.58508768    -0.06200
C1229       C  0.31915042  0.94245815  0.60419428    -0.17400
C1230       C  0.35462951  0.96332418  0.60525590     0.10900
S1231       S  0.29388181  0.83968547  0.05233985    -0.32400
S1232       S  0.37660252  0.51020367  0.63079164    -0.32400
H1233       H  0.40551819  0.51076344  0.64404161     0.28900
H1234       H  0.32196079  0.83785803  0.54128138     0.28900
H1235       H  0.36616111  0.89736926  0.55702380     0.19500
H1236       H  0.30609679  0.95536230  0.61679811     0.19500
C1237       C  0.07934700  0.93881235  0.51724165    -0.06300
C1238       C  0.06725757  0.90889135  0.54250986    -0.17400
C1239       C  0.08265479  0.88867110  0.54372119     0.10900
C1240       C  0.11230600  0.89983643  0.52127211    -0.06200
C1241       C  0.12312911  0.92814511  0.49374760    -0.17400
C1242       C  0.10655895  0.94722103  0.49087802     0.10900
S1243       S  0.06337510  0.84889287  0.57471905    -0.32400
S1244       S  0.12348608  0.48455023  0.45656243    -0.32400
H1245       H  0.09182117  0.47157700  0.43635576     0.28900
H1246       H  0.07518372  0.82946772  0.55079769     0.28900
H1247       H  0.04581033  0.90145619  0.56190292     0.19500
H1248       H  0.14556540  0.93662788  0.47602471     0.19500
C1249       C  0.38921426  0.60350928  0.72584605    -0.06300
C1250       C  0.36919566  0.56565733  0.73321714    -0.17400
C1251       C  0.38391872  0.54505972  0.73901605     0.10900
C1252       C  0.41948149  0.56305126  0.73810552    -0.06200
C1253       C  0.43902682  0.59996807  0.72736456    -0.17400
C1254       C  0.42433090  0.62037401  0.72144421     0.10900
S1255       S  0.35749455  0.49695221  0.75071208    -0.32400
S1256       S  0.45215014  0.66872743  0.71218480    -0.32400
H1257       H  0.43689915  0.68169799  0.74031451     0.28900
H1258       H  0.32668685  0.49509446  0.75179845     0.28900
H1259       H  0.34230432  0.55305081  0.73681220     0.19500
H1260       H  0.46624641  0.61364255  0.72581266     0.19500
C1261       C  0.40955815  0.82204653  0.78970749    -0.06300
C1262       C  0.40056994  0.83993219  0.76197607    -0.17400
C1263       C  0.42083467  0.87834609  0.75873810     0.10900
C1264       C  0.44987668  0.90088239  0.78661734    -0.06200
C1265       C  0.45710930  0.88332993  0.81721535    -0.17400
C1266       C  0.43793994  0.84438530  0.81835818     0.10900
S1267       S  0.40906380  0.89553496  0.71599170    -0.32400
S1268       S  0.45265225  0.82508649  0.85476602    -0.32400
H1269       H  0.45097291  0.79881345  0.82367721     0.28900
H1270       H  0.44074408  0.91113948  0.69760976     0.28900
H1271       H  0.37857263  0.82326443  0.74022732     0.19500
H1272       H  0.47892220  0.89984500  0.83928139     0.19500
C1273       C  0.22158256  0.61796822  0.75274933    -0.06300
C1274       C  0.20186156  0.62552704  0.72704465    -0.17400
C1275       C  0.16666240  0.60789732  0.73170007     0.10900
C1276       C  0.15124731  0.58382543  0.76456122    -0.06200
C1277       C  0.17108991  0.57618958  0.78953448    -0.17400
C1278       C  0.20492600  0.59043556  0.78180246     0.10900
S1279       S  0.14375833  0.61819800  0.69529339    -0.32400
S1280       S  0.22409271  0.56915056  0.80692862    -0.32400
H1281       H  0.24573226  0.57396456  0.77378792     0.28900
H1282       H  0.11720016  0.61112888  0.72131913     0.28900
H1283       H  0.21401880  0.64580227  0.70384961     0.19500
H1284       H  0.15941018  0.55647609  0.81346553     0.19500
C1285       C  0.43830707  0.59364944  0.02984886    -0.06300
C1286       C  0.40525038  0.57581071  0.01150246    -0.17400
C1287       C  0.38692751  0.59280728  0.01395901     0.10900
C1288       C  0.40227185  0.62960085  0.03309975    -0.06200
C1289       C  0.43492742  0.64736846  0.55240684    -0.17400
C1290       C  0.45299489  0.62980911  0.05122029     0.10900
S1291       S  0.34325547  0.56525490  0.99418551    -0.32400
S1292       S  0.49481169  0.65544482  0.57653745    -0.32400
H1293       H  0.50876052  0.64784583  0.54118694     0.28900
H1294       H  0.33219401  0.58290573  0.02269981     0.28900
H1295       H  0.39279369  0.54755162  0.99661848     0.19500
H1296       H  0.44687220  0.67563746  0.56712489     0.19500
C1297       C  0.41651893  0.82928154  0.47447748    -0.06300
C1298       C  0.40091549  0.84842461  0.96625121    -0.17400
C1299       C  0.41869778  0.88739699  0.97330301     0.10900
C1300       C  0.45255809  0.90750251  0.49066063    -0.06200
C1301       C  0.46893433  0.88833697  0.49437453    -0.17400
C1302       C  0.45141396  0.84966326  0.48589471     0.10900
S1303       S  0.39557781  0.90887719  0.96363454    -0.32400
S1304       S  0.47396208  0.82722371  0.49404498    -0.32400
H1305       H  0.45114784  0.79396967  0.46899759     0.28900
H1306       H  0.41980058  0.93398447  0.93676846     0.28900
H1307       H  0.37404657  0.83265085  0.95743715     0.19500
H1308       H  0.49518605  0.90328652  0.50591530     0.19500
C1309       C  0.15344018  0.58924604  0.53900721    -0.06300
C1310       C  0.16674509  0.61414968  0.00713987    -0.17400
C1311       C  0.20172861  0.63672804  0.00216817     0.10900
C1312       C  0.22414759  0.63323972  0.52820626    -0.06200
C1313       C  0.21096726  0.60932083  0.56105070    -0.17400
C1314       C  0.17600866  0.58735098  0.56670739     0.10900
S1315       S  0.21627924  0.67076768  0.96370545    -0.32400
S1316       S  0.16177659  0.55589690  0.60802323    -0.32400
H1317       H  0.13557098  0.52524027  0.58243200     0.28900
H1318       H  0.24680781  0.69743254  0.98654992     0.28900
H1319       H  0.14971973  0.61643225  0.98626732     0.19500
H1320       H  0.22802018  0.60677504  0.58150051     0.19500
C1321       C  0.34368233  0.67336221  0.92547028    -0.06300
C1322       C  0.37585984  0.69262041  0.90840892    -0.17400
C1323       C  0.37873207  0.69157446  0.86543882     0.10900
C1324       C  0.34818365  0.67102006  0.84030428    -0.06200
C1325       C  0.31944077  0.64163377  0.85760396    -0.17400
C1326       C  0.31704363  0.64213561  0.90121938     0.10900
S1327       S  0.42140475  0.71952740  0.84719403    -0.32400
S1328       S  0.28443139  0.59995047  0.92253909    -0.32400
H1329       H  0.30177918  0.60687933  0.96186674     0.28900
H1330       H  0.41572763  0.70434830  0.80511531     0.28900
H1331       H  0.39857304  0.71112357  0.92856199     0.19500
H1332       H  0.29928123  0.61859384  0.83742761     0.19500
C1333       C  0.36238178  0.73197734  0.59512406    -0.06300
C1334       C  0.39044964  0.73631958  0.61582087    -0.17400
C1335       C  0.38624423  0.72175814  0.65439802     0.10900
C1336       C  0.35370368  0.70578061  0.67233341    -0.06200
C1337       C  0.33196768  0.71629053  0.65755501    -0.17400
C1338       C  0.33773508  0.73188402  0.61927716     0.10900
S1339       S  0.42346842  0.72470216  0.67601452    -0.32400
S1340       S  0.31576473  0.75290837  0.60172527    -0.32400
H1341       H  0.29438251  0.74368119  0.63605735     0.28900
H1342       H  0.42042141  0.73116307  0.71925993     0.28900
H1343       H  0.41303692  0.74408088  0.59868332     0.19500
H1344       H  0.31194996  0.71419473  0.67639997     0.19500
C1345       C  0.85359226  0.21295561  0.05166433     0.29800
C1346       C  0.84277007  0.18603986  0.46982680     0.29800
C1347       C  0.81580284  0.18743914  0.03606362    -0.06400
C1348       C  0.86882723  0.24211472  0.02014396    -0.07100
C1349       C  0.86696285  0.18747349  0.03978247    -0.07000
C1350       C  0.81004275  0.17435196  0.49322885    -0.06400
C1351       C  0.86302677  0.22904185  0.47808902    -0.07100
C1352       C  0.86128261  0.17438252  0.49776093    -0.07000
C1353       C  0.77528373  0.15470588  0.48491713    -0.32400
N1354       N  0.76005938  0.15330896  0.52194564     0.14100
C1355       C  0.78450713  0.17225895  0.05337429    -0.32400
H1356       H  0.77941635  0.17438234  0.08647176     0.16000
C1357       C  0.87950817  0.26021975  0.45508878    -0.31400
N1358       N  0.89558948  0.29104666  0.98315339     0.12800
C1359       C  0.88902132  0.28024765  0.02296338    -0.31400
C1360       C  0.87402342  0.15233552  0.49092247    -0.31700
N1361       N  0.88672782  0.15040130  0.52828726     0.13300
H1362       H  0.87386368  0.13838110  0.46079374     0.15900
C1363       C  0.88279043  0.17184193  0.05863710    -0.31700
H1364       H  0.89023363  0.17485357  0.09182312     0.15900
H1365       H  0.89867009  0.29891177  0.05180795     0.15900
H1366       H  0.76183868  0.14237369  0.45444554     0.16000
H1367       H  0.88061068  0.26055957  0.42089025     0.15900
C1368       C  0.84633550  0.17907069  0.29639199     0.29800
C1369       C  0.84790066  0.19193105  0.21467994     0.29800
C1370       C  0.81169251  0.16622715  0.27530471    -0.06400
C1371       C  0.86714840  0.22054344  0.28821113    -0.07100
C1372       C  0.85878409  0.15978653  0.26661436    -0.07000
C1373       C  0.81183741  0.17136247  0.23240443    -0.06400
C1374       C  0.86796870  0.22636964  0.24626074    -0.07100
C1375       C  0.85982168  0.16612007  0.22447108    -0.07000
C1376       C  0.77801844  0.15373753  0.21835549    -0.32400
N1377       N  0.75820679  0.14010517  0.25228271     0.14100
C1378       C  0.77898484  0.14985953  0.28729045    -0.32400
H1379       H  0.77056954  0.14501710  0.31932443     0.16000
C1380       C  0.88424789  0.26398928  0.24310804    -0.31400
N1381       N  0.89296902  0.28198394  0.28251079     0.12800
C1382       C  0.88174906  0.25550198  0.31079176    -0.31400
C1383       C  0.86958671  0.14417858  0.20304163    -0.31700
N1384       N  0.87504720  0.12578790  0.23210151     0.13300
H1385       H  0.87284528  0.14203709  0.16924343     0.15900
C1386       C  0.86793246  0.13468043  0.27084296    -0.31700
H1387       H  0.87000143  0.12418277  0.30011520     0.15900
H1388       H  0.88294400  0.26097686  0.34495867     0.15900
H1389       H  0.76852737  0.15000853  0.18590951     0.16000
H1390       H  0.88868569  0.27735757  0.21388110     0.15900
C1391       C  0.61614264  0.06420116  0.03997876     0.76300
Tb1392     Tb  0.97251966  0.01949090  0.04274662     1.80700
O1393       O  0.59950393  0.05443253  0.07321343    -0.51700
O1394       O  0.56334647  0.47543108  0.05982888    -0.59200
C1395       C  0.54683380  0.08785060  0.05643757     0.92100
O1396       O  0.97787327  0.07808760  0.05527421    -0.58700
Tb1397     Tb  0.54547177  0.01394478  0.03751985     1.78100
O1398       O  0.92860501  0.46264346  0.06960026    -0.59200
O1399       O  0.49282033  0.45795414  0.03915810    -0.78000
O1400       O  0.55306740  0.07138868  0.02690654    -0.77300
O1401       O  0.53005419  0.01457954  0.46164950    -0.62600
C1402       C  0.97055554  0.44684347  0.00929870     0.91700
O1403       O  0.98603052  0.01396851  0.11777189    -0.74500
C1404       C  0.90722964  0.97175103  0.07337959     0.75100
C1405       C  0.56601976  0.46320873  0.02355169     0.76100
O1406       O  0.59763456  0.04985132  0.50640469    -0.59800
O1407       O  0.55688808  0.47468351  0.99406721    -0.51700
O1408       O  0.98706980  0.02260543  0.46445573    -0.77800
O1409       O  0.53404713  0.01528704  0.11635628    -0.61800
C1410       C  0.51004969  0.01406849  0.13872943     0.89900
C1411       C  0.50859907  0.01921631  0.44135829     0.91100
C1412       C  0.95373497  0.07111466  0.53049197     0.75500
O1413       O  0.91843151  0.00373872  0.06247403    -0.51100
O1414       O  0.94086406  0.53975902  0.50970763    -0.52300
O1415       O  0.96359464  0.46935687  0.99684308    -0.65100
O1416       O  0.52218018  0.06861169  0.07887785    -0.66300
C1417       C  0.61475943  0.06354514  0.27352840     0.76300
Tb1418     Tb  0.97075632  0.01408777  0.28598906     1.80700
O1419       O  0.60495638  0.05711669  0.31084504    -0.51700
O1420       O  0.57958557  0.50105185  0.33219861    -0.59200
C1421       C  0.54610406  0.09143199  0.29768813     0.92100
O1422       O  0.96081963  0.06212229  0.28200421    -0.58700
Tb1423     Tb  0.54673457  0.01694919  0.29412326     1.78100
O1424       O  0.91736658  0.45840553  0.28494053    -0.59200
O1425       O  0.49846529  0.46067884  0.31067521    -0.78000
O1426       O  0.55517618  0.07423612  0.31916434    -0.77300
O1427       O  0.53256925  0.01407022  0.21478152    -0.62600
C1428       C  0.97284142  0.44217222  0.28538041     0.91700
O1429       O  0.98551790  0.01828436  0.36535056    -0.74500
C1430       C  0.90526355  0.96837541  0.31453158     0.75100
C1431       C  0.57046165  0.47100444  0.31058067     0.76100
O1432       O  0.59047319  0.04789675  0.24581221    -0.59800
O1433       O  0.54885661  0.46292868  0.28085250    -0.51700
O1434       O  0.98487396  0.01297369  0.21037025    -0.77800
O1435       O  0.53371979  0.02050936  0.36974236    -0.61800
C1436       C  0.50907766  0.01956218  0.38927976     0.89900
C1437       C  0.50939561  0.01357861  0.19084765     0.94500
C1438       C  0.93730884  0.04605843  0.25347205     0.75500
O1439       O  0.92671552  0.00043448  0.33210041    -0.51100
O1440       O  0.93050319  0.51415778  0.24047030    -0.52300
O1441       O  0.96712337  0.45963680  0.25990819    -0.65100
O1442       O  0.51771957  0.07388140  0.27740233    -0.66300
C1443       C  0.67847447  0.33479846  0.02029172     0.29800
C1444       C  0.67350273  0.35322277  0.10106233     0.29800
C1445       C  0.66284562  0.35871273  0.02713840    -0.06400
C1446       C  0.65824522  0.30232748  0.04690888    -0.07100
C1447       C  0.71280144  0.35854859  0.04570947    -0.07000
C1448       C  0.66044986  0.36751612  0.06878619    -0.06400
C1449       C  0.65456252  0.31044338  0.08828923    -0.07100
C1450       C  0.71007940  0.36714809  0.08822749    -0.07000
C1451       C  0.64313017  0.38501589  0.07091732    -0.32400
N1452       N  0.63377967  0.38651667  0.03099630     0.14100
C1453       C  0.64635905  0.37134579  0.00359238    -0.32400
H1454       H  0.64215708  0.36795842  0.96943792     0.16000
C1455       C  0.63426879  0.27572723  0.10486294    -0.31400
N1456       N  0.62677699  0.24803295  0.07370371     0.12800
C1457       C  0.64206687  0.26464336  0.03863631    -0.31400
C1458       C  0.74196928  0.38362947  0.10795520    -0.31700
N1459       N  0.76411546  0.38743474  0.07815592     0.13300
H1460       H  0.74870904  0.39171483  0.14153413     0.15900
C1461       C  0.74678189  0.37332200  0.03989150    -0.31700
H1462       H  0.75849562  0.37456369  0.01017258     0.15900
H1463       H  0.64122955  0.25016909  0.00861345     0.15900
H1464       H  0.63645877  0.39451847  0.09964357     0.16000
H1465       H  0.62521852  0.27092486  0.13667428     0.15900
C1466       C  0.67269742  0.34699909  0.26923326     0.29800
C1467       C  0.67318622  0.33557885  0.35070952     0.29800
C1468       C  0.65263610  0.35764264  0.29748164    -0.06400
C1469       C  0.65981591  0.30669706  0.27702090    -0.07100
C1470       C  0.70842932  0.36885364  0.29222335    -0.07000
C1471       C  0.65301888  0.35301209  0.33971777    -0.06400
C1472       C  0.66055141  0.30146928  0.31910504    -0.07100
C1473       C  0.70833060  0.36357790  0.33504903    -0.07000
C1474       C  0.64090244  0.37354704  0.35981092    -0.32400
N1475       N  0.63098614  0.38733716  0.32933630     0.14100
C1476       C  0.63827119  0.37742833  0.29138761    -0.32400
H1477       H  0.63516110  0.38599916  0.26120360     0.16000
C1478       C  0.64809837  0.26455132  0.32242314    -0.31400
N1479       N  0.63871814  0.24658736  0.28310418     0.12800
C1480       C  0.64575844  0.27197806  0.25467009    -0.31400
C1481       C  0.74147764  0.38124311  0.35015017    -0.31700
N1482       N  0.76162108  0.39433797  0.31699884     0.13300
H1483       H  0.75058220  0.38258360  0.38215490     0.15900
C1484       C  0.74191678  0.38657384  0.28128160    -0.31700
H1485       H  0.75124595  0.39180077  0.24959614     0.15900
H1486       H  0.63932656  0.26533688  0.22089855     0.15900
H1487       H  0.64094038  0.37946129  0.39371185     0.16000
H1488       H  0.64346888  0.25105336  0.35159215     0.15900
C1489       C  0.67413963  0.31895283  0.47633949    -0.06300
C1490       C  0.64205133  0.30413037  0.45661781    -0.17400
C1491       C  0.63983876  0.30682840  0.41412829     0.10900
C1492       C  0.67064553  0.32362454  0.39314852    -0.06200
C1493       C  0.69705212  0.32113527  0.40987474    -0.17400
C1494       C  0.69906469  0.31867233  0.45280733     0.10900
S1495       S  0.59804092  0.29053807  0.39162237    -0.32400
S1496       S  0.72636806  0.30491272  0.47231158    -0.32400
H1497       H  0.71041357  0.29336702  0.01080997     0.28900
H1498       H  0.60240748  0.28125768  0.34982278     0.28900
H1499       H  0.62000632  0.29604018  0.47511494     0.19500
H1500       H  0.71546595  0.32066275  0.38980083     0.19500
C1501       C  0.66877282  0.35446774  0.22599174    -0.06300
C1502       C  0.69441107  0.38856565  0.21168177    -0.17400
C1503       C  0.69390371  0.39421370  0.16960973     0.10900
C1504       C  0.66796919  0.36450924  0.14345807    -0.06200
C1505       C  0.63711597  0.33996903  0.16042120    -0.17400
C1506       C  0.63714943  0.33303162  0.20207402     0.10900
S1507       S  0.72442841  0.43953056  0.15222369    -0.32400
S1508       S  0.59642673  0.29585342  0.21901503    -0.32400
H1509       H  0.60170523  0.29997839  0.26307413     0.28900
H1510       H  0.70858851  0.43329911  0.11201203     0.28900
H1511       H  0.71441631  0.41077167  0.23274715     0.19500
H1512       H  0.61457893  0.32194168  0.13985508     0.19500
C1513       C  0.61570832  0.20702000  0.27711668    -0.06300
C1514       C  0.58118981  0.19296380  0.28042452    -0.17400
C1515       C  0.55833595  0.15620779  0.28969639     0.10900
C1516       C  0.56973956  0.13195999  0.29371545    -0.06200
C1517       C  0.60444118  0.14615906  0.29004283    -0.17400
C1518       C  0.62736500  0.18323322  0.28145259     0.10900
S1519       S  0.51626346  0.14392023  0.30162270    -0.32400
S1520       S  0.67148957  0.19939202  0.27789203    -0.32400
H1521       H  0.68046123  0.23040407  0.25535377     0.28900
H1522       H  0.51244381  0.12087409  0.33362748     0.28900
H1523       H  0.57268525  0.21194420  0.27976049     0.19500
H1524       H  0.61378544  0.12828270  0.29363204     0.19500
C1525       C  0.86866185  0.44625068  0.32302157    -0.06300
C1526       C  0.84771835  0.41248655  0.29766546    -0.17400
C1527       C  0.81244480  0.39428412  0.29626748     0.10900
C1528       C  0.79749741  0.41055907  0.31964803    -0.06200
C1529       C  0.81794943  0.44264150  0.34730962    -0.17400
C1530       C  0.85323439  0.46029724  0.34989661     0.10900
S1531       S  0.78782429  0.35019687  0.26463562    -0.32400
S1532       S  0.87676503  0.00107161  0.38699649    -0.32400
H1533       H  0.89835391  0.99055523  0.40207166     0.28900
H1534       H  0.76015829  0.33461785  0.29109222     0.28900
H1535       H  0.85885357  0.40057028  0.27776158     0.19500
H1536       H  0.80624039  0.45424952  0.36656679     0.19500
C1537       C  0.61898603  0.41215086  0.33277532    -0.06300
C1538       C  0.63195637  0.44051076  0.30484419    -0.17400
C1539       C  0.61508635  0.45775955  0.29520220     0.10900
C1540       C  0.58630611  0.44994473  0.31731112    -0.06200
C1541       C  0.57508531  0.42462894  0.34881490    -0.17400
C1542       C  0.59052903  0.40481690  0.35591903     0.10900
S1543       S  0.63111523  0.48830947  0.25290793    -0.32400
S1544       S  0.57210743  0.36986371  0.39325773    -0.32400
H1545       H  0.57320008  0.34278118  0.36663593     0.28900
H1546       H  0.59976430  0.48065524  0.23735960     0.28900
H1547       H  0.65419479  0.44716830  0.28753572     0.19500
H1548       H  0.55347070  0.41927583  0.36680110     0.19500
C1549       C  0.60438159  0.20789996  0.07305829    -0.06300
C1550       C  0.58454320  0.18828845  0.03542733    -0.17400
C1551       C  0.56665032  0.14953354  0.02890796     0.10900
C1552       C  0.56590011  0.12887823  0.06206402    -0.06200
C1553       C  0.58428961  0.14789240  0.10062469    -0.17400
C1554       C  0.60460606  0.18716555  0.10581329     0.10900
S1555       S  0.54574999  0.12848929  0.47712675    -0.32400
S1556       S  0.63243902  0.20867271  0.15271296    -0.32400
H1557       H  0.66003016  0.23616872  0.13151132     0.28900
H1558       H  0.51812640  0.09576438  0.49108279     0.28900
H1559       H  0.58381498  0.20351262  0.50996514     0.19500
H1560       H  0.58444332  0.13207477  0.12580771     0.19500
C1561       C  0.87179756  0.44762825  0.08584455    -0.06300
C1562       C  0.85304557  0.40974218  0.07088373    -0.17400
C1563       C  0.81741029  0.38860389  0.07065460     0.10900
C1564       C  0.80026808  0.40581233  0.08508605    -0.06200
C1565       C  0.81915086  0.44245941  0.10419005    -0.17400
C1566       C  0.85462992  0.46332572  0.10525177     0.10900
S1567       S  0.79388274  0.33968511  0.55234181    -0.32400
S1568       S  0.87660407  0.01020280  0.13079853    -0.32400
H1569       H  0.90551915  0.01076105  0.14404764     0.28900
H1570       H  0.82196202  0.33785789  0.04128365     0.28900
H1571       H  0.86616234  0.39736923  0.05702694     0.19500
H1572       H  0.80609700  0.45536375  0.11679186     0.19500
C1573       C  0.57935078  0.43881602  0.01724386    -0.06300
C1574       C  0.56726131  0.40889504  0.04251204    -0.17400
C1575       C  0.58265793  0.38867419  0.04372302     0.10900
C1576       C  0.61230870  0.39983869  0.02127321    -0.06200
C1577       C  0.62313216  0.42814770  0.99374910    -0.17400
C1578       C  0.60656264  0.44722437  0.99088009     0.10900
S1579       S  0.56337802  0.34889610  0.07472116    -0.32400
S1580       S  0.62348434  0.98454919  0.95655966    -0.32400
H1581       H  0.59181937  0.97157648  0.93635356     0.28900
H1582       H  0.57518549  0.32947008  0.05079912     0.28900
H1583       H  0.54581378  0.40145995  0.06190556     0.19500
H1584       H  0.64556841  0.43663012  0.97602575     0.19500
C1585       C  0.88921194  0.10350588  0.22584523    -0.06300
C1586       C  0.86919328  0.06565374  0.23321581    -0.17400
C1587       C  0.88391646  0.04505617  0.23901484     0.10900
C1588       C  0.91947932  0.06304787  0.23810444    -0.06200
C1589       C  0.93902431  0.09996469  0.22736389    -0.17400
C1590       C  0.92432869  0.12037087  0.22144416     0.10900
S1591       S  0.85749240  0.99694861  0.25071106    -0.32400
S1592       S  0.95214807  0.16872478  0.21218690    -0.32400
H1593       H  0.93689622  0.18169448  0.24031625     0.28900
H1594       H  0.82668418  0.99508985  0.25179376     0.28900
H1595       H  0.84230225  0.05304727  0.23681044     0.19500
H1596       H  0.96624542  0.11364005  0.22581199     0.19500
C1597       C  0.90955546  0.32204396  0.28970361    -0.06300
C1598       C  0.90056874  0.33993015  0.26197086    -0.17400
C1599       C  0.92083390  0.37834422  0.25873374     0.10900
C1600       C  0.94987497  0.40088015  0.28661463    -0.06200
C1601       C  0.95710603  0.38332705  0.31721332    -0.17400
C1602       C  0.93793625  0.34438246  0.31835595     0.10900
S1603       S  0.90906482  0.39553399  0.21598652    -0.32400
S1604       S  0.95264661  0.32508318  0.35476588    -0.32400
H1605       H  0.95096974  0.29881145  0.32367726     0.28900
H1606       H  0.94074611  0.41113946  0.19760707     0.28900
H1607       H  0.87857228  0.32326288  0.24022100     0.19500
H1608       H  0.97891873  0.39984229  0.33928126     0.19500
C1609       C  0.72158104  0.11796669  0.25274880    -0.06300
C1610       C  0.70186016  0.12552622  0.22704498    -0.17400
C1611       C  0.66666119  0.10789696  0.23170104     0.10900
C1612       C  0.65124630  0.08382487  0.26456208    -0.06200
C1613       C  0.67108887  0.07618842  0.28953441    -0.17400
C1614       C  0.70492463  0.09043380  0.28180169     0.10900
S1615       S  0.64375697  0.11819813  0.19529524    -0.32400
S1616       S  0.72409119  0.06914784  0.30692603    -0.32400
H1617       H  0.74573025  0.07396205  0.27378465     0.28900
H1618       H  0.61720008  0.11113072  0.22132252     0.28900
H1619       H  0.71401744  0.14580166  0.20385001     0.19500
H1620       H  0.65940894  0.05647421  0.31346579     0.19500
C1621       C  0.93830617  0.09364823  0.52984551    -0.06300
C1622       C  0.90525000  0.07581015  0.51149776    -0.17400
C1623       C  0.88692740  0.09280704  0.51395306     0.10900
C1624       C  0.90227159  0.12960053  0.53309449    -0.06200
C1625       C  0.93492647  0.14736676  0.05240306    -0.17400
C1626       C  0.95299405  0.12980808  0.55121664     0.10900
S1627       S  0.84325581  0.06525511  0.49417782    -0.32400
S1628       S  0.99480996  0.15544250  0.07653642    -0.32400
H1629       H  0.00876059  0.14784620  0.04118586     0.28900
H1630       H  0.83219361  0.08290483  0.52269263     0.28900
H1631       H  0.89279311  0.04755054  0.49661337     0.19500
H1632       H  0.94687092  0.17563564  0.06712262     0.19500
C1633       C  0.91651878  0.32928223  0.97447815    -0.06300
C1634       C  0.90091591  0.34842508  0.46625295    -0.17400
C1635       C  0.91869806  0.38739745  0.47330509     0.10900
C1636       C  0.95255854  0.40750328  0.99066041    -0.06200
C1637       C  0.96893503  0.38833775  0.99437114    -0.17400
C1638       C  0.95141440  0.34966398  0.98589196     0.10900
S1639       S  0.89557777  0.40887731  0.46363671    -0.32400
S1640       S  0.97396319  0.32722458  0.99403808    -0.32400
H1641       H  0.95114731  0.29396992  0.96899277     0.28900
H1642       H  0.91980023  0.43398443  0.43677023     0.28900
H1643       H  0.87404748  0.33265145  0.45743865     0.19500
H1644       H  0.99518810  0.40328789  0.00590930     0.19500
C1645       C  0.65343987  0.08924417  0.03900440    -0.06300
C1646       C  0.66674380  0.11414866  0.50713850    -0.17400
C1647       C  0.70172739  0.13672791  0.50216717     0.10900
C1648       C  0.72414725  0.13323877  0.02820322    -0.06200
C1649       C  0.71096717  0.10932013  0.06104791    -0.17400
C1650       C  0.67600866  0.08734986  0.06670482     0.10900
S1651       S  0.71627788  0.17076995  0.46370731    -0.32400
S1652       S  0.66177710  0.05589653  0.10802147    -0.32400
H1653       H  0.63557082  0.02523962  0.08243130     0.28900
H1654       H  0.74680671  0.19743359  0.48655209     0.28900
H1655       H  0.64971832  0.11643214  0.48626743     0.19500
H1656       H  0.72802061  0.10677490  0.08149831     0.19500
C1657       C  0.84368141  0.17336332  0.42546809    -0.06300
C1658       C  0.87585875  0.19262171  0.40840644    -0.17400
C1659       C  0.87873098  0.19157422  0.36543656     0.10900
C1660       C  0.84818248  0.17101848  0.34030229    -0.06200
C1661       C  0.81944000  0.14163249  0.35760276    -0.17400
C1662       C  0.81704310  0.14213537  0.40121815     0.10900
S1663       S  0.92140354  0.21952659  0.34719135    -0.32400
S1664       S  0.78443149  0.09995055  0.42253926    -0.32400
H1665       H  0.80177963  0.10688036  0.46186683     0.28900
H1666       H  0.91572606  0.20434623  0.30511315     0.28900
H1667       H  0.89857244  0.21112590  0.42855957     0.19500
H1668       H  0.79928012  0.11859165  0.33742660     0.19500
C1669       C  0.86238109  0.23197546  0.09512260    -0.06300
C1670       C  0.89044853  0.23631672  0.11581949    -0.17400
C1671       C  0.88624230  0.22175435  0.15439620     0.10900
C1672       C  0.85370152  0.20577676  0.17233101    -0.06200
C1673       C  0.83196590  0.21628712  0.15755256    -0.17400
C1674       C  0.83773413  0.23188176  0.11927545     0.10900
S1675       S  0.92346612  0.22469784  0.17601316    -0.32400
S1676       S  0.81576457  0.25290716  0.10172421    -0.32400
H1677       H  0.79438296  0.24368094  0.13605686     0.28900
H1678       H  0.92041968  0.23116069  0.21925829     0.28900
H1679       H  0.91303544  0.24407803  0.09868278     0.19500
H1680       H  0.81194778  0.21419113  0.17639744     0.19500
C1681       C  0.85359197  0.21295540  0.55166427     0.29800
C1682       C  0.84277051  0.18603994  0.96982685     0.29800
C1683       C  0.81580253  0.18743902  0.53606370    -0.06400
C1684       C  0.86882699  0.24211459  0.52014400    -0.07100
C1685       C  0.86696249  0.18747327  0.53978231    -0.07000
C1686       C  0.81004312  0.17435194  0.99322880    -0.06400
C1687       C  0.86302704  0.22904191  0.97808905    -0.07100
C1688       C  0.86128308  0.17438276  0.99776113    -0.07000
C1689       C  0.77528404  0.15470566  0.98491699    -0.32400
N1690       N  0.76005973  0.15330895  0.02194560     0.14100
C1691       C  0.78450681  0.17225877  0.55337451    -0.32400
H1692       H  0.77941611  0.17438195  0.58647155     0.16000
C1693       C  0.87950812  0.26021972  0.95508866    -0.31400
N1694       N  0.89558961  0.29104661  0.48315369     0.12800
C1695       C  0.88902125  0.28024736  0.52296340    -0.31400
C1696       C  0.87402389  0.15233571  0.99092258    -0.31700
N1697       N  0.88672801  0.15040130  0.02828760     0.13300
H1698       H  0.87386430  0.13838171  0.96079449     0.15900
C1699       C  0.88279031  0.17184195  0.55863687    -0.31700
H1700       H  0.89023376  0.17485382  0.59182279     0.15900
H1701       H  0.89867044  0.29891201  0.55180899     0.15900
H1702       H  0.76183921  0.14237353  0.95444603     0.16000
H1703       H  0.88061041  0.26055941  0.92089023     0.15900
C1704       C  0.84633764  0.17907226  0.79639258     0.29800
C1705       C  0.84790270  0.19193337  0.71468084     0.29800
C1706       C  0.81169461  0.16622884  0.77530543    -0.06400
C1707       C  0.86715056  0.22054517  0.78821218    -0.07100
C1708       C  0.85878637  0.15978855  0.76661452    -0.07000
C1709       C  0.81183942  0.17136447  0.73240535    -0.06400
C1710       C  0.86797069  0.22637173  0.74626188    -0.07100
C1711       C  0.85982395  0.16612250  0.72447143    -0.07000
C1712       C  0.77802032  0.15373952  0.71835649    -0.32400
N1713       N  0.75820873  0.14010689  0.75228378     0.14100
C1714       C  0.77898690  0.14986111  0.78729143    -0.32400
H1715       H  0.77057193  0.14501876  0.81932495     0.16000
C1716       C  0.88424968  0.26399133  0.74310971    -0.31400
N1717       N  0.89297091  0.28198573  0.78251247     0.12800
C1718       C  0.88175125  0.25550355  0.81079324    -0.31400
C1719       C  0.86958916  0.14418138  0.70304165    -0.31700
N1720       N  0.87504966  0.12579043  0.73210089     0.13300
H1721       H  0.87284769  0.14204011  0.66924266     0.15900
C1722       C  0.86793483  0.13468237  0.77084285    -0.31700
H1723       H  0.87000355  0.12418474  0.80011346     0.15900
H1724       H  0.88294640  0.26097822  0.84495997     0.15900
H1725       H  0.76852937  0.15001084  0.68591108     0.16000
H1726       H  0.88868733  0.27736011  0.71388235     0.15900
C1727       C  0.61614220  0.06420080  0.53997851     0.76300
Tb1728     Tb  0.97251956  0.01949068  0.54274652     1.80700
O1729       O  0.59950371  0.05443096  0.57321323    -0.51700
O1730       O  0.56334754  0.47543200  0.55982909    -0.59200
C1731       C  0.54683349  0.08785010  0.55643670     0.92100
O1732       O  0.97787282  0.07808730  0.55527431    -0.58700
Tb1733     Tb  0.54547136  0.01394427  0.53751995     1.78100
O1734       O  0.92860436  0.46264357  0.56960024    -0.59200
O1735       O  0.49281968  0.45795423  0.53915954    -0.78000
O1736       O  0.55306668  0.07138782  0.52690568    -0.77300
O1737       O  0.53005478  0.01458048  0.96164949    -0.62600
C1738       C  0.97055503  0.44684340  0.50929995     0.91700
O1739       O  0.98603072  0.01396907  0.61777214    -0.74500
C1740       C  0.90722943  0.97175031  0.57337877     0.75100
C1741       C  0.56601903  0.46320800  0.52355200     0.76100
O1742       O  0.59763524  0.04985044  0.00640488    -0.59800
O1743       O  0.55688574  0.47468129  0.49406754    -0.51700
O1744       O  0.98706987  0.02260579  0.96445576    -0.77800
O1745       O  0.53404707  0.01528737  0.61635643    -0.61800
C1746       C  0.51004981  0.01406911  0.63872970     0.89900
C1747       C  0.50859956  0.01921706  0.94135821     0.91100
C1748       C  0.95373528  0.07111491  0.03049209     0.75500
O1749       O  0.91843109  0.00373793  0.56247312    -0.51100
O1750       O  0.94086441  0.53975904  0.00970796    -0.52300
O1751       O  0.96359416  0.46935662  0.49684367    -0.65100
O1752       O  0.52218009  0.06861157  0.57887742    -0.66300
C1753       C  0.61476086  0.06354672  0.77352897     0.76300
Tb1754     Tb  0.97075675  0.01408891  0.78598934     1.80700
O1755       O  0.60495754  0.05711763  0.81084541    -0.51700
O1756       O  0.57958689  0.50105384  0.83219909    -0.59200
C1757       C  0.54610476  0.09143316  0.79768915     0.92100
O1758       O  0.96082026  0.06212355  0.78200424    -0.58700
Tb1759     Tb  0.54673568  0.01695046  0.79412328     1.78100
O1760       O  0.91736618  0.45840757  0.78493842    -0.59200
O1761       O  0.49846641  0.46068037  0.81067588    -0.78000
O1762       O  0.55517692  0.07423707  0.81916494    -0.77300
O1763       O  0.53256973  0.01407106  0.71478164    -0.62600
C1764       C  0.97284208  0.44217377  0.78538127     0.91700
O1765       O  0.98551821  0.01828525  0.86535070    -0.74500
C1766       C  0.90526357  0.96837662  0.81453113     0.75100
C1767       C  0.57046303  0.47100631  0.81058147     0.76100
O1768       O  0.59047470  0.04789879  0.74581264    -0.59800
O1769       O  0.54885798  0.46293035  0.78085323    -0.51700
O1770       O  0.98487447  0.01297456  0.71037065    -0.77800
O1771       O  0.53372049  0.02051048  0.86974233    -0.61800
C1772       C  0.50907826  0.01956310  0.88927975     0.89900
C1773       C  0.50939607  0.01357959  0.69084795     0.94500
C1774       C  0.93730987  0.04605986  0.75347158     0.75500
O1775       O  0.92671565  0.00043554  0.83210021    -0.51100
O1776       O  0.93050481  0.51416035  0.74046945    -0.52300
O1777       O  0.96712358  0.45963798  0.75990901    -0.65100
O1778       O  0.51772025  0.07388276  0.77740341    -0.66300
C1779       C  0.67847412  0.33479835  0.52029138     0.29800
C1780       C  0.67350191  0.35322172  0.60106219     0.29800
C1781       C  0.66284506  0.35871238  0.52713844    -0.06400
C1782       C  0.65824490  0.30232706  0.54690813    -0.07100
C1783       C  0.71280095  0.35854839  0.54570934    -0.07000
C1784       C  0.66044889  0.36751512  0.56878629    -0.06400
C1785       C  0.65456205  0.31044253  0.58828857    -0.07100
C1786       C  0.71007870  0.36714745  0.58822746    -0.07000
C1787       C  0.64312883  0.38501448  0.57091761    -0.32400
N1788       N  0.63377862  0.38651569  0.53099672     0.14100
C1789       C  0.64635845  0.37134550  0.50359245    -0.32400
H1790       H  0.64215692  0.36795869  0.46943880     0.16000
C1791       C  0.63426847  0.27572623  0.60486202    -0.31400
N1792       N  0.62677698  0.24803230  0.57370240     0.12800
C1793       C  0.64206678  0.26464302  0.53863521    -0.31400
C1794       C  0.74196852  0.38362880  0.60795526    -0.31700
N1795       N  0.76411489  0.38743453  0.57815600     0.13300
H1796       H  0.74870815  0.39171393  0.64153444     0.15900
C1797       C  0.74678141  0.37332203  0.53989154    -0.31700
H1798       H  0.75849532  0.37456397  0.51017229     0.15900
H1799       H  0.64122960  0.25016889  0.50861192     0.15900
H1800       H  0.63645712  0.39451667  0.59964414     0.16000
H1801       H  0.62521825  0.27092364  0.63667279     0.15900
C1802       C  0.67269639  0.34699966  0.76923400     0.29800
C1803       C  0.67318603  0.33557967  0.85071022     0.29800
C1804       C  0.65263367  0.35764122  0.79748226    -0.06400
C1805       C  0.65981669  0.30669806  0.77702147    -0.07100
C1806       C  0.70842831  0.36885600  0.79222429    -0.07000
C1807       C  0.65301693  0.35301085  0.83971843    -0.06400
C1808       C  0.66055271  0.30147045  0.81910558    -0.07100
C1809       C  0.70833002  0.36358027  0.83504999    -0.07000
C1810       C  0.64090179  0.37354692  0.85981194    -0.32400
N1811       N  0.63098510  0.38733687  0.82933763     0.14100
C1812       C  0.63826912  0.37742736  0.79138858    -0.32400
H1813       H  0.63515923  0.38599858  0.76120509     0.16000
C1814       C  0.64810020  0.26455258  0.82242374    -0.31400
N1815       N  0.63871965  0.24658851  0.78310477     0.12800
C1816       C  0.64575929  0.27197903  0.75467079    -0.31400
C1817       C  0.74147715  0.38124506  0.85015029    -0.31700
N1818       N  0.76162031  0.39433963  0.81699884     0.13300
H1819       H  0.75058222  0.38258504  0.88215579     0.15900
C1820       C  0.74191563  0.38657557  0.78128196    -0.31700
H1821       H  0.75124436  0.39180184  0.74959628     0.15900
H1822       H  0.63932652  0.26533752  0.72089903     0.15900
H1823       H  0.64094104  0.37946226  0.89371300     0.16000
H1824       H  0.64347086  0.25105484  0.85159245     0.15900
C1825       C  0.67413981  0.31895258  0.97633994    -0.06300
C1826       C  0.64205132  0.30412990  0.95661854    -0.17400
C1827       C  0.63983884  0.30682840  0.91412899     0.10900
C1828       C  0.67064560  0.32362522  0.89314918    -0.06200
C1829       C  0.69705249  0.32113624  0.90987502    -0.17400
C1830       C  0.69906498  0.31867274  0.95280752     0.10900
S1831       S  0.59804076  0.29053707  0.89162308    -0.32400
S1832       S  0.72636836  0.30491295  0.97231107    -0.32400
H1833       H  0.71041323  0.29336706  0.51081049     0.28900
H1834       H  0.60240760  0.28125606  0.84982385     0.28900
H1835       H  0.62000705  0.29603965  0.97511515     0.19500
H1836       H  0.71546636  0.32066434  0.88980114     0.19500
C1837       C  0.66877144  0.35446797  0.72599243    -0.06300
C1838       C  0.69440951  0.38856574  0.71168194    -0.17400
C1839       C  0.69390231  0.39421283  0.66960950     0.10900
C1840       C  0.66796819  0.36450766  0.64345807    -0.06200
C1841       C  0.63711505  0.33996735  0.66042125    -0.17400
C1842       C  0.63714829  0.33303087  0.70207443     0.10900
S1843       S  0.72442691  0.43952945  0.65222281    -0.32400
S1844       S  0.59642575  0.29585262  0.71901571    -0.32400
H1845       H  0.60170475  0.29997579  0.76307460     0.28900
H1846       H  0.70858690  0.43329771  0.61201119     0.28900
H1847       H  0.71441420  0.41077198  0.73274680     0.19500
H1848       H  0.61457771  0.32193911  0.63985475     0.19500
C1849       C  0.61570950  0.20702113  0.77711771    -0.06300
C1850       C  0.58119107  0.19296526  0.78042593    -0.17400
C1851       C  0.55833705  0.15620931  0.78969799     0.10900
C1852       C  0.56974041  0.13196122  0.79371679    -0.06200
C1853       C  0.60444194  0.14616012  0.79004410    -0.17400
C1854       C  0.62736593  0.18323411  0.78145366     0.10900
S1855       S  0.51626471  0.14392209  0.80162466    -0.32400
S1856       S  0.67149035  0.19939245  0.77789303    -0.32400
H1857       H  0.68046200  0.23040406  0.75535395     0.28900
H1858       H  0.51244484  0.12087548  0.83362898     0.28900
H1859       H  0.57268672  0.21194581  0.77976201     0.19500
H1860       H  0.61378625  0.12828327  0.79363335     0.19500
C1861       C  0.86866127  0.44625186  0.82301989    -0.06300
C1862       C  0.84771754  0.41248865  0.79766227    -0.17400
C1863       C  0.81244395  0.39428640  0.79626451     0.10900
C1864       C  0.79749669  0.41056043  0.81964728    -0.06200
C1865       C  0.81794895  0.44264191  0.84731012    -0.17400
C1866       C  0.85323395  0.46029760  0.84989653     0.10900
S1867       S  0.78782334  0.35020039  0.76463033    -0.32400
S1868       S  0.87676575  0.00107153  0.88699849    -0.32400
H1869       H  0.89835470  0.99055460  0.90207186     0.28900
H1870       H  0.76015772  0.33462008  0.79108748     0.28900
H1871       H  0.85885254  0.40057304  0.77775712     0.19500
H1872       H  0.80624008  0.45424940  0.86656865     0.19500
C1873       C  0.61898602  0.41215140  0.83277721    -0.06300
C1874       C  0.63195739  0.44051188  0.80484678    -0.17400
C1875       C  0.61508792  0.45776122  0.79520447     0.10900
C1876       C  0.58630730  0.44994645  0.81731250    -0.06200
C1877       C  0.57508543  0.42462990  0.84881558    -0.17400
C1878       C  0.59052855  0.40481730  0.85591989     0.10900
S1879       S  0.63111777  0.48831139  0.75291053    -0.32400
S1880       S  0.57210561  0.36986319  0.89325746    -0.32400
H1881       H  0.57319929  0.34278118  0.86663599     0.28900
H1882       H  0.59976734  0.48065843  0.73736203     0.28900
H1883       H  0.65419584  0.44716907  0.78753892     0.19500
H1884       H  0.55347048  0.41927662  0.86680091     0.19500
C1885       C  0.60438185  0.20789932  0.57305682    -0.06300
C1886       C  0.58454361  0.18828783  0.53542581    -0.17400
C1887       C  0.56665056  0.14953293  0.52890664     0.10900
C1888       C  0.56590014  0.12887771  0.56206286    -0.06200
C1889       C  0.58428970  0.14789185  0.60062355    -0.17400
C1890       C  0.60460628  0.18716503  0.60581191     0.10900
S1891       S  0.54575003  0.12849000  0.97712787    -0.32400
S1892       S  0.63243938  0.20867234  0.65271150    -0.32400
H1893       H  0.66003047  0.23616829  0.63150973     0.28900
H1894       H  0.51812670  0.09576466  0.99108349     0.28900
H1895       H  0.58381454  0.20351325  0.00996682     0.19500
H1896       H  0.58444331  0.13207451  0.62580624     0.19500
C1897       C  0.87179707  0.44762852  0.58584491    -0.06300
C1898       C  0.85304518  0.40974251  0.57088381    -0.17400
C1899       C  0.81740990  0.38860405  0.57065462     0.10900
C1900       C  0.80026753  0.40581229  0.58508621    -0.06200
C1901       C  0.81915023  0.44245927  0.60419050    -0.17400
C1902       C  0.85462930  0.46332577  0.60525234     0.10900
S1903       S  0.79388293  0.33968484  0.05234236    -0.32400
S1904       S  0.87660347  0.01020094  0.63079863    -0.32400
H1905       H  0.90551873  0.01075929  0.64404713     0.28900
H1906       H  0.82196207  0.33785802  0.54128491     0.28900
H1907       H  0.86616203  0.39736977  0.55702672     0.19500
H1908       H  0.80609617  0.45536351  0.61679255     0.19500
C1909       C  0.57934989  0.43881516  0.51724421    -0.06300
C1910       C  0.56726024  0.40889417  0.54251247    -0.17400
C1911       C  0.58265690  0.38867326  0.54372335     0.10900
C1912       C  0.61230769  0.39983782  0.52127368    -0.06200
C1913       C  0.62313141  0.42814694  0.49374959    -0.17400
C1914       C  0.60656176  0.44722355  0.49088065     0.10900
S1915       S  0.56337675  0.34889502  0.57472124    -0.32400
S1916       S  0.62348292  0.98454739  0.45655933    -0.32400
H1917       H  0.59181768  0.97157461  0.43635399     0.28900
H1918       H  0.57518408  0.32946897  0.55079900     0.28900
H1919       H  0.54581317  0.40145927  0.56190542     0.19500
H1920       H  0.64556705  0.43662916  0.47602682     0.19500
C1921       C  0.88921385  0.10350789  0.72584406    -0.06300
C1922       C  0.86919497  0.06565593  0.73321532    -0.17400
C1923       C  0.88391785  0.04505812  0.73901454     0.10900
C1924       C  0.91948058  0.06304935  0.73810348    -0.06200
C1925       C  0.93902591  0.09996595  0.72736196    -0.17400
C1926       C  0.92433042  0.12037232  0.72144202     0.10900
S1927       S  0.85749365  0.99695094  0.75071208    -0.32400
S1928       S  0.95215000  0.16872591  0.71218349    -0.32400
H1929       H  0.93689914  0.18169642  0.74031352     0.28900
H1930       H  0.82668524  0.99509189  0.75179226     0.28900
H1931       H  0.84230406  0.05304989  0.73681067     0.19500
H1932       H  0.96624604  0.11364042  0.72580956     0.19500
C1933       C  0.90955696  0.32204566  0.78970580    -0.06300
C1934       C  0.90056908  0.33993144  0.76197378    -0.17400
C1935       C  0.92083403  0.37834557  0.75873637     0.10900
C1936       C  0.94987568  0.40088174  0.78661615    -0.06200
C1937       C  0.95710786  0.38332910  0.81721449    -0.17400
C1938       C  0.93793831  0.34438440  0.81835713     0.10900
S1939       S  0.90906368  0.39553481  0.71598979    -0.32400
S1940       S  0.95265007  0.32508565  0.85476595    -0.32400
H1941       H  0.95097178  0.29881313  0.82367731     0.28900
H1942       H  0.94074431  0.41113975  0.69760870     0.28900
H1943       H  0.87857287  0.32326443  0.74022538     0.19500
H1944       H  0.97892013  0.39984386  0.83928068     0.19500
C1945       C  0.72158287  0.11796850  0.75275017    -0.06300
C1946       C  0.70186206  0.12552799  0.72704598    -0.17400
C1947       C  0.66666298  0.10789862  0.73170197     0.10900
C1948       C  0.65124792  0.08382664  0.76456300    -0.06200
C1949       C  0.67109043  0.07619031  0.78953581    -0.17400
C1950       C  0.70492637  0.09043587  0.78180330     0.10900
S1951       S  0.64375898  0.11819986  0.69529593    -0.32400
S1952       S  0.72409278  0.06915000  0.80692830    -0.32400
H1953       H  0.74573184  0.07396382  0.77378705     0.28900
H1954       H  0.61720248  0.11113334  0.72132354     0.28900
H1955       H  0.71401900  0.14580275  0.70385154     0.19500
H1956       H  0.65941071  0.05647668  0.81346668     0.19500
C1957       C  0.93830660  0.09364858  0.02984571    -0.06300
C1958       C  0.90525071  0.07581061  0.01149679    -0.17400
C1959       C  0.88692792  0.09280734  0.01395237     0.10900
C1960       C  0.90227164  0.12960039  0.03309489    -0.06200
C1961       C  0.93492676  0.14736714  0.55240150    -0.17400
C1962       C  0.95299392  0.12980785  0.05121809     0.10900
S1963       S  0.84325661  0.06525555  0.99417570    -0.32400
S1964       S  0.99481062  0.15544316  0.57653334    -0.32400
H1965       H  0.00876027  0.14784512  0.54118295     0.28900
H1966       H  0.83219375  0.08290452  0.02269060     0.28900
H1967       H  0.89279458  0.04755224  0.99661185     0.19500
H1968       H  0.94687172  0.17563663  0.56712027     0.19500
C1969       C  0.91651932  0.32928224  0.47447880    -0.06300
C1970       C  0.90091524  0.34842521  0.96625416    -0.17400
C1971       C  0.91869738  0.38739749  0.97330600     0.10900
C1972       C  0.95255853  0.40750317  0.49066185    -0.06200
C1973       C  0.96893478  0.38833764  0.49437475    -0.17400
C1974       C  0.95141448  0.34966399  0.48589506     0.10900
S1975       S  0.89557665  0.40887737  0.96364058    -0.32400
S1976       S  0.97396296  0.32722466  0.49404373    -0.32400
H1977       H  0.95114828  0.29397046  0.46899690     0.28900
H1978       H  0.91979784  0.43398433  0.93677287     0.28900
H1979       H  0.87404547  0.33265097  0.95744129     0.19500
H1980       H  0.99518758  0.40328777  0.50591489     0.19500
C1981       C  0.65343946  0.08924371  0.53900411    -0.06300
C1982       C  0.66674408  0.11414795  0.00713758    -0.17400
C1983       C  0.70172765  0.13672710  0.00216615     0.10900
C1984       C  0.72414693  0.13323871  0.52820334    -0.06200
C1985       C  0.71096668  0.10931900  0.56104686    -0.17400
C1986       C  0.67600823  0.08734843  0.56670356     0.10900
S1987       S  0.71627784  0.17076789  0.96370483    -0.32400
S1988       S  0.66177656  0.05589349  0.60801845    -0.32400
H1989       H  0.63557081  0.02523730  0.58242689     0.28900
H1990       H  0.74680626  0.19743252  0.98654974     0.28900
H1991       H  0.64971867  0.11643063  0.98626580     0.19500
H1992       H  0.72802052  0.10677306  0.58149703     0.19500
C1993       C  0.84368232  0.17336358  0.92546823    -0.06300
C1994       C  0.87585985  0.19262210  0.90840710    -0.17400
C1995       C  0.87873262  0.19157511  0.86543734     0.10900
C1996       C  0.84818441  0.17101942  0.84030262    -0.06200
C1997       C  0.81944176  0.14163300  0.85760247    -0.17400
C1998       C  0.81704426  0.14213579  0.90121782     0.10900
S1999       S  0.92140533  0.21952784  0.84719270    -0.32400
S2000       S  0.78443206  0.09995104  0.92253838    -0.32400
H2001       H  0.80177983  0.10688039  0.96186614     0.28900
H2002       H  0.91572826  0.20434697  0.80511474     0.28900
H2003       H  0.89857361  0.21112647  0.92856085     0.19500
H2004       H  0.79928249  0.11859265  0.83742628     0.19500
C2005       C  0.86238102  0.23197522  0.59512246    -0.06300
C2006       C  0.89044891  0.23631725  0.61581896    -0.17400
C2007       C  0.88624376  0.22175640  0.65439640     0.10900
C2008       C  0.85370328  0.20577911  0.67233199    -0.06200
C2009       C  0.83196730  0.21628891  0.65755351    -0.17400
C2010       C  0.83773439  0.23188203  0.61927560     0.10900
S2011       S  0.92346827  0.22470119  0.67601322    -0.32400
S2012       S  0.81576421  0.25290663  0.60172395    -0.32400
H2013       H  0.79438173  0.24367908  0.63605580     0.28900
H2014       H  0.92042145  0.23116298  0.71925848     0.28900
H2015       H  0.91303597  0.24407838  0.59868137     0.19500
H2016       H  0.81194932  0.21419334  0.67639903     0.19500
C2017       C  0.85359298  0.71295668  0.05166646     0.29800
C2018       C  0.84277039  0.68603914  0.46982902     0.29800
C2019       C  0.81580355  0.68743973  0.03606620    -0.06400
C2020       C  0.86882749  0.74211511  0.02014526    -0.07100
C2021       C  0.86696370  0.68747458  0.03978534    -0.07000
C2022       C  0.81004315  0.67435133  0.49323130    -0.06400
C2023       C  0.86302669  0.72904125  0.47809002    -0.07100
C2024       C  0.86128340  0.67438288  0.49776391    -0.07000
C2025       C  0.77528407  0.65470484  0.48491994    -0.32400
N2026       N  0.76005999  0.65330881  0.52194844     0.14100
C2027       C  0.78450800  0.67225999  0.05337707    -0.32400
H2028       H  0.77941731  0.67438414  0.08647449     0.16000
C2029       C  0.87950784  0.76021866  0.45508888    -0.31400
N2030       N  0.89558886  0.79104634  0.98315352     0.12800
C2031       C  0.88902099  0.78024799  0.02296370    -0.31400
C2032       C  0.87402397  0.65233556  0.49092663    -0.31700
N2033       N  0.88672852  0.65040227  0.52829179     0.13300
H2034       H  0.87386383  0.63838012  0.46079840     0.15900
C2035       C  0.88279106  0.67184314  0.05864060    -0.31700
H2036       H  0.89023440  0.67485524  0.09182753     0.15900
H2037       H  0.89866982  0.79891279  0.05180815     0.15900
H2038       H  0.76183884  0.64237222  0.45444869     0.16000
H2039       H  0.88061055  0.76055776  0.42089037     0.15900
C2040       C  0.84633580  0.67907163  0.29639401     0.29800
C2041       C  0.84790138  0.69193236  0.21468188     0.29800
C2042       C  0.81169292  0.66622847  0.27530645    -0.06400
C2043       C  0.86714915  0.72054440  0.28821323    -0.07100
C2044       C  0.85878421  0.65978730  0.26661626    -0.07000
C2045       C  0.81183806  0.67136395  0.23240618    -0.06400
C2046       C  0.86796957  0.72637077  0.24626287    -0.07100
C2047       C  0.85982203  0.66612105  0.22447300    -0.07000
C2048       C  0.77801917  0.65373848  0.21835684    -0.32400
N2049       N  0.75820716  0.64010575  0.25228357     0.14100
C2050       C  0.77898502  0.64986041  0.28729171    -0.32400
H2051       H  0.77056952  0.64501778  0.31932535     0.16000
C2052       C  0.88424923  0.76399048  0.24311032    -0.31400
N2053       N  0.89297047  0.78198498  0.28251303     0.12800
C2054       C  0.88175032  0.75550301  0.31079418    -0.31400
C2055       C  0.86958705  0.64417955  0.20304355    -0.31700
N2056       N  0.87504723  0.62578858  0.23210333     0.13300
H2057       H  0.87284585  0.64203829  0.16924544     0.15900
C2058       C  0.86793228  0.63468088  0.27084492    -0.31700
H2059       H  0.87000096  0.62418326  0.30011637     0.15900
H2060       H  0.88294536  0.76097775  0.34495996     0.15900
H2061       H  0.76852818  0.65000913  0.18590992     0.16000
H2062       H  0.88868709  0.77735892  0.21388342     0.15900
C2063       C  0.61614343  0.56420321  0.03998105     0.76300
Tb2064     Tb  0.97252054  0.51949175  0.04274631     1.80700
O2065       O  0.59950419  0.55443417  0.07321529    -0.51700
O2066       O  0.56334628  0.97543018  0.05982745    -0.59200
C2067       C  0.54683476  0.58785187  0.05643796     0.92100
O2068       O  0.97787331  0.57808782  0.05527804    -0.58700
Tb2069     Tb  0.54547270  0.51394610  0.03752025     1.78100
O2070       O  0.92860399  0.96264245  0.06959990    -0.59200
O2071       O  0.49281915  0.95795321  0.03915792    -0.78000
O2072       O  0.55306840  0.57139007  0.02690686    -0.77300
O2073       O  0.53005481  0.51458017  0.46164970    -0.62600
C2074       C  0.97055447  0.94684275  0.00929866     0.91700
O2075       O  0.98603077  0.51396900  0.11777159    -0.74500
C2076       C  0.90722995  0.47175122  0.07337749     0.75100
C2077       C  0.56601734  0.96320633  0.02354998     0.76100
O2078       O  0.59763589  0.54985337  0.50640663    -0.59800
O2079       O  0.55688414  0.97468009  0.99406598    -0.51700
O2080       O  0.98707033  0.52260627  0.46445560    -0.77800
O2081       O  0.53404753  0.51528793  0.11635647    -0.61800
C2082       C  0.51005003  0.51406922  0.13872951     0.89900
C2083       C  0.50859966  0.51921682  0.44135825     0.91100
C2084       C  0.95373619  0.57111653  0.53049418     0.75500
O2085       O  0.91843132  0.50373822  0.06247010    -0.51100
O2086       O  0.94086179  0.03975593  0.50970794    -0.52300
O2087       O  0.96359354  0.96935612  0.99684310    -0.65100
O2088       O  0.52218111  0.56861284  0.07887816    -0.66300
C2089       C  0.61475918  0.56354370  0.27352717     0.76300
Tb2090     Tb  0.97075682  0.51408810  0.28598881     1.80700
O2091       O  0.60495623  0.55711668  0.31084402    -0.51700
O2092       O  0.57958639  0.00105269  0.33219836    -0.59200
C2093       C  0.54610489  0.59143201  0.29768772     0.92100
O2094       O  0.96082005  0.56212284  0.28200554    -0.58700
Tb2095     Tb  0.54673436  0.51694860  0.29412286     1.78100
O2096       O  0.91736651  0.95840510  0.28494269    -0.59200
O2097       O  0.49846586  0.96067941  0.31067578    -0.78000
O2098       O  0.55517705  0.57423600  0.31916362    -0.77300
O2099       O  0.53256915  0.51407017  0.21478134    -0.62600
C2100       C  0.97284188  0.94217278  0.28538124     0.91700
O2101       O  0.98551828  0.51828490  0.36535041    -0.74500
C2102       C  0.90526371  0.46837548  0.31452996     0.75100
C2103       C  0.57046213  0.97100503  0.31058072     0.76100
O2104       O  0.59047286  0.54789406  0.24581104    -0.59800
O2105       O  0.54885677  0.96292915  0.28085294    -0.51700
O2106       O  0.98487423  0.51297426  0.21037000    -0.77800
O2107       O  0.53372009  0.52050933  0.36974211    -0.61800
C2108       C  0.50907812  0.51956240  0.38927961     0.89900
C2109       C  0.50939573  0.51357907  0.19084760     0.94500
C2110       C  0.93730956  0.54605954  0.25347298     0.75500
O2111       O  0.92671593  0.50043394  0.33209992    -0.51100
O2112       O  0.93050207  0.01415628  0.24047051    -0.52300
O2113       O  0.96712359  0.95963694  0.25990868    -0.65100
O2114       O  0.51772025  0.57388166  0.27740228    -0.66300
C2115       C  0.67847463  0.83479988  0.02029270     0.29800
C2116       C  0.67350224  0.85322408  0.10106322     0.29800
C2117       C  0.66284562  0.85871395  0.02713902    -0.06400
C2118       C  0.65824537  0.80232888  0.04690985    -0.07100
C2119       C  0.71280143  0.85855026  0.04571076    -0.07000
C2120       C  0.66044925  0.86751710  0.06878670    -0.06400
C2121       C  0.65456243  0.81044467  0.08829017    -0.07100
C2122       C  0.71007909  0.86714976  0.08822867    -0.07000
C2123       C  0.64312886  0.88501612  0.07091716    -0.32400
N2124       N  0.63377874  0.88651670  0.03099581     0.14100
C2125       C  0.64635896  0.87134654  0.00359243    -0.32400
H2126       H  0.64215735  0.86795907  0.96943797     0.16000
C2127       C  0.63426906  0.77572842  0.10486388    -0.31400
N2128       N  0.62677764  0.74803427  0.07370467     0.12800
C2129       C  0.64206733  0.76464478  0.03863732    -0.31400
C2130       C  0.74196887  0.88363098  0.10795679    -0.31700
N2131       N  0.76411523  0.88743615  0.07815784     0.13300
H2132       H  0.74870829  0.89171599  0.14153567     0.15900
C2133       C  0.74678194  0.87332353  0.03989313    -0.31700
H2134       H  0.75849559  0.87456493  0.01017489     0.15900
H2135       H  0.64123006  0.75017044  0.00861416     0.15900
H2136       H  0.63645666  0.89451815  0.09964306     0.16000
H2137       H  0.62521878  0.77092591  0.13667520     0.15900
C2138       C  0.67269758  0.84699918  0.26923390     0.29800
C2139       C  0.67318589  0.83557852  0.35071010     0.29800
C2140       C  0.65263540  0.85764178  0.29748202    -0.06400
C2141       C  0.65981679  0.80669725  0.27702128    -0.07100
C2142       C  0.70842929  0.86885445  0.29222464    -0.07000
C2143       C  0.65301789  0.85301095  0.33971812    -0.06400
C2144       C  0.66055208  0.80146932  0.31910539    -0.07100
C2145       C  0.70833030  0.86357836  0.33505026    -0.07000
C2146       C  0.64090142  0.87354593  0.35981130    -0.32400
N2147       N  0.63098532  0.88733623  0.32933662     0.14100
C2148       C  0.63827058  0.87742759  0.29138808    -0.32400
H2149       H  0.63516086  0.88599895  0.26120377     0.16000
C2150       C  0.64809921  0.76455139  0.32242344    -0.31400
N2151       N  0.63871917  0.74658750  0.28310445     0.12800
C2152       C  0.64575948  0.77197824  0.25467041    -0.31400
C2153       C  0.74147724  0.88124263  0.35015143    -0.31700
N2154       N  0.76162086  0.89433724  0.31700039     0.13300
H2155       H  0.75058158  0.88258242  0.38215636     0.15900
C2156       C  0.74191684  0.88657374  0.28128279    -0.31700
H2157       H  0.75124569  0.89180011  0.24959871     0.15900
H2158       H  0.63932744  0.76533707  0.22089891     0.15900
H2159       H  0.64093926  0.87946009  0.39371204     0.16000
H2160       H  0.64346944  0.75105341  0.35159235     0.15900
C2161       C  0.67413930  0.81895324  0.47634009    -0.06300
C2162       C  0.64205089  0.80413065  0.45661848    -0.17400
C2163       C  0.63983821  0.80682790  0.41412873     0.10900
C2164       C  0.67064494  0.82362388  0.39314898    -0.06200
C2165       C  0.69705136  0.82113438  0.40987530    -0.17400
C2166       C  0.69906407  0.81867208  0.45280802     0.10900
S2167       S  0.59804022  0.79053643  0.39162236    -0.32400
S2168       S  0.72636713  0.80491223  0.47231257    -0.32400
H2169       H  0.71041391  0.79336875  0.01081207     0.28900
H2170       H  0.60240743  0.78125653  0.34982286     0.28900
H2171       H  0.62000611  0.79604078  0.47511543     0.19500
H2172       H  0.71546502  0.82066152  0.38980148     0.19500
C2173       C  0.66877300  0.85446790  0.22599236    -0.06300
C2174       C  0.69441108  0.88856591  0.21168247    -0.17400
C2175       C  0.69390310  0.89421466  0.16961080     0.10900
C2176       C  0.66796842  0.86451047  0.14345893    -0.06200
C2177       C  0.63711574  0.83996998  0.16042248    -0.17400
C2178       C  0.63714946  0.83303174  0.20207476     0.10900
S2179       S  0.72442743  0.93953180  0.15222523    -0.32400
S2180       S  0.59642713  0.79585284  0.21901565    -0.32400
H2181       H  0.60170559  0.79997693  0.26307468     0.28900
H2182       H  0.70858723  0.93330049  0.11201382     0.28900
H2183       H  0.71441671  0.91077178  0.23274785     0.19500
H2184       H  0.61457729  0.82194154  0.13985527     0.19500
C2185       C  0.61570894  0.70702015  0.27711706    -0.06300
C2186       C  0.58119073  0.69296443  0.28042797    -0.17400
C2187       C  0.55833708  0.65620828  0.28969959     0.10900
C2188       C  0.56974048  0.63195998  0.29371535    -0.06200
C2189       C  0.60444179  0.64615859  0.29003997    -0.17400
C2190       C  0.62736547  0.68323288  0.28144999     0.10900
S2191       S  0.51626526  0.64392103  0.30162964    -0.32400
S2192       S  0.67148965  0.69939103  0.27788599    -0.32400
H2193       H  0.68046100  0.73040408  0.25534986     0.28900
H2194       H  0.51244618  0.62087320  0.33363211     0.28900
H2195       H  0.57268649  0.71194502  0.27976640     0.19500
H2196       H  0.61378589  0.62828183  0.29362692     0.19500
C2197       C  0.86866172  0.94625015  0.32302348    -0.06300
C2198       C  0.84771839  0.91248652  0.29766634    -0.17400
C2199       C  0.81244480  0.89428393  0.29626820     0.10900
C2200       C  0.79749721  0.91055810  0.31964985    -0.06200
C2201       C  0.81794907  0.94263976  0.34731272    -0.17400
C2202       C  0.85323409  0.96029572  0.34989966     0.10900
S2203       S  0.78782464  0.85019742  0.26463474    -0.32400
S2204       S  0.87676551  0.50107454  0.38699144    -0.32400
H2205       H  0.89835343  0.49055795  0.40206958     0.28900
H2206       H  0.76015832  0.83461759  0.29109079     0.28900
H2207       H  0.85885361  0.90057103  0.27776187     0.19500
H2208       H  0.80623992  0.95424707  0.36657084     0.19500
C2209       C  0.61898536  0.91215008  0.33277570    -0.06300
C2210       C  0.63195660  0.94051064  0.30484535    -0.17400
C2211       C  0.61508705  0.95775996  0.29520321     0.10900
C2212       C  0.58630636  0.94994498  0.31731120    -0.06200
C2213       C  0.57508439  0.92462815  0.34881410    -0.17400
C2214       C  0.59052778  0.90481570  0.35591824     0.10900
S2215       S  0.63111746  0.98831076  0.25290981    -0.32400
S2216       S  0.57210502  0.86986161  0.39325582    -0.32400
H2217       H  0.57319878  0.84277972  0.36663421     0.28900
H2218       H  0.59976811  0.98066261  0.23736407     0.28900
H2219       H  0.65419518  0.94716827  0.28753783     0.19500
H2220       H  0.55346985  0.91927481  0.36679910     0.19500
C2221       C  0.60438239  0.70790123  0.07305918    -0.06300
C2222       C  0.58454348  0.68828977  0.03542859    -0.17400
C2223       C  0.56665052  0.64953486  0.02890907     0.10900
C2224       C  0.56590103  0.62887950  0.06206465    -0.06200
C2225       C  0.58429122  0.64789363  0.10062495    -0.17400
C2226       C  0.60460759  0.68716680  0.10581364     0.10900
S2227       S  0.54574703  0.62849032  0.47712875    -0.32400
S2228       S  0.63244131  0.70867408  0.15271267    -0.32400
H2229       H  0.66003176  0.73617081  0.13151083     0.28900
H2230       H  0.51812492  0.59576447  0.49108524     0.28900
H2231       H  0.58381314  0.70351384  0.50996727     0.19500
H2232       H  0.58444549  0.63207596  0.12580757     0.19500
C2233       C  0.87179729  0.94762807  0.08584690    -0.06300
C2234       C  0.85304491  0.90974237  0.07088433    -0.17400
C2235       C  0.81740961  0.88860452  0.07065531     0.10900
C2236       C  0.80026780  0.90581295  0.08508845    -0.06200
C2237       C  0.81915097  0.94245941  0.10419449    -0.17400
C2238       C  0.85463011  0.96332530  0.10525607     0.10900
S2239       S  0.79388187  0.83968526  0.55233736    -0.32400
S2240       S  0.87660318  0.51020378  0.13079254    -0.32400
H2241       H  0.90551860  0.51076315  0.14404272     0.28900
H2242       H  0.82196079  0.83785836  0.04128327     0.28900
H2243       H  0.86616108  0.89736974  0.05702634     0.19500
H2244       H  0.80609760  0.95536364  0.11679760     0.19500
C2245       C  0.57934794  0.93881335  0.01724129    -0.06300
C2246       C  0.56725832  0.90889201  0.04250885    -0.17400
C2247       C  0.58265557  0.88867182  0.04372023     0.10900
C2248       C  0.61230707  0.89983759  0.02127165    -0.06200
C2249       C  0.62313037  0.92814654  0.99374752    -0.17400
C2250       C  0.60656018  0.94722243  0.99087801     0.10900
S2251       S  0.56337589  0.84889332  0.07471769    -0.32400
S2252       S  0.62348699  0.48455090  0.95656132    -0.32400
H2253       H  0.59182213  0.47157767  0.93635451     0.28900
H2254       H  0.57518501  0.82946860  0.05079652     0.28900
H2255       H  0.54581034  0.90145629  0.06190192     0.19500
H2256       H  0.64556692  0.93662965  0.97602489     0.19500
C2257       C  0.88921207  0.60350664  0.22584708    -0.06300
C2258       C  0.86919362  0.56565458  0.23321805    -0.17400
C2259       C  0.88391700  0.54505716  0.23901663     0.10900
C2260       C  0.91947984  0.56304899  0.23810601    -0.06200
C2261       C  0.93902480  0.59996587  0.22736538    -0.17400
C2262       C  0.92432875  0.62037165  0.22144523     0.10900
S2263       S  0.85749313  0.49694943  0.25071202    -0.32400
S2264       S  0.95214775  0.66872523  0.21218632    -0.32400
H2265       H  0.93689667  0.68169539  0.24031642     0.28900
H2266       H  0.82668553  0.49509182  0.25180031     0.28900
H2267       H  0.84230261  0.55304797  0.23681290     0.19500
H2268       H  0.96624500  0.61364089  0.22581347     0.19500
C2269       C  0.90955664  0.82204494  0.28970607    -0.06300
C2270       C  0.90056890  0.83993062  0.26197376    -0.17400
C2271       C  0.92083400  0.87834471  0.25873621     0.10900
C2272       C  0.94987558  0.90088083  0.28661608    -0.06200
C2273       C  0.95710762  0.88332827  0.31721463    -0.17400
C2274       C  0.93793792  0.84438361  0.31835739     0.10900
S2275       S  0.90906386  0.89553392  0.21598941    -0.32400
S2276       S  0.95264947  0.82508478  0.35476629    -0.32400
H2277       H  0.95097128  0.79881232  0.32367762     0.28900
H2278       H  0.94074454  0.91113879  0.19760846     0.28900
H2279       H  0.87857281  0.82326370  0.24022540     0.19500
H2280       H  0.97891983  0.89984298  0.33928088     0.19500
C2281       C  0.72158130  0.61796645  0.25274901    -0.06300
C2282       C  0.70186025  0.62552523  0.22704435    -0.17400
C2283       C  0.66666110  0.60789532  0.23169971     0.10900
C2284       C  0.65124611  0.58382336  0.26456081    -0.06200
C2285       C  0.67108871  0.57618730  0.28953380    -0.17400
C2286       C  0.70492482  0.59043348  0.28180180     0.10900
S2287       S  0.64375691  0.61819574  0.19529297    -0.32400
S2288       S  0.72409181  0.56914855  0.30692754    -0.32400
H2289       H  0.74573136  0.57396296  0.27378671     0.28900
H2290       H  0.61719897  0.61112703  0.22131892     0.28900
H2291       H  0.71401745  0.64580056  0.20384940     0.19500
H2292       H  0.65940900  0.55647363  0.31346465     0.19500
C2293       C  0.93830694  0.59364965  0.52984944    -0.06300
C2294       C  0.90524997  0.57581067  0.51150371    -0.17400
C2295       C  0.88692731  0.59280754  0.51396008     0.10900
C2296       C  0.90227208  0.62960146  0.53310009    -0.06200
C2297       C  0.93492710  0.64736781  0.05240738    -0.17400
C2298       C  0.95299511  0.62980960  0.55122027     0.10900
S2299       S  0.84325494  0.56525509  0.49418769    -0.32400
S2300       S  0.99481114  0.65544411  0.07653871    -0.32400
H2301       H  0.00876075  0.64784664  0.04118793     0.28900
H2302       H  0.83219410  0.58290653  0.52270207     0.28900
H2303       H  0.89279312  0.54755164  0.49662064     0.19500
H2304       H  0.94687173  0.67563680  0.06712628     0.19500
C2305       C  0.91651822  0.82928170  0.97447756    -0.06300
C2306       C  0.90091676  0.84842477  0.46624924    -0.17400
C2307       C  0.91869889  0.88739709  0.47330123     0.10900
C2308       C  0.95255779  0.90750268  0.99066004    -0.06200
C2309       C  0.96893422  0.88833717  0.99437138    -0.17400
C2310       C  0.95141373  0.84966346  0.98589194     0.10900
S2311       S  0.89557969  0.90887751  0.46362880    -0.32400
S2312       S  0.97396243  0.82722409  0.99403902    -0.32400
H2313       H  0.95114692  0.79396953  0.96899329     0.28900
H2314       H  0.91980444  0.93398529  0.43676486     0.28900
H2315       H  0.87404765  0.83265077  0.45743276     0.19500
H2316       H  0.99518716  0.90328726  0.00591031     0.19500
C2317       C  0.65344065  0.58924638  0.03900749    -0.06300
C2318       C  0.66674484  0.61415006  0.50714102    -0.17400
C2319       C  0.70172841  0.63672851  0.50216947     0.10900
C2320       C  0.72414807  0.63323997  0.02820648    -0.06200
C2321       C  0.71096769  0.60932220  0.06105188    -0.17400
C2322       C  0.67600920  0.58735238  0.06670873     0.10900
S2323       S  0.71627926  0.67076949  0.46370828    -0.32400
S2324       S  0.66177721  0.55589993  0.10802627    -0.32400
H2325       H  0.63557130  0.52524250  0.08243627     0.28900
H2326       H  0.74680818  0.69743337  0.48655271     0.28900
H2327       H  0.64971968  0.61643344  0.48626945     0.19500
H2328       H  0.72802119  0.60677715  0.08150316     0.19500
C2329       C  0.84368175  0.67336194  0.42547047    -0.06300
C2330       C  0.87585904  0.69262000  0.40840874    -0.17400
C2331       C  0.87873110  0.69157383  0.36543871     0.10900
C2332       C  0.84818248  0.67101912  0.34030439    -0.06200
C2333       C  0.81943980  0.64163306  0.35760455    -0.17400
C2334       C  0.81704292  0.64213508  0.40121994     0.10900
S2335       S  0.92140369  0.71952673  0.34719360    -0.32400
S2336       S  0.78443111  0.59994999  0.42254026    -0.32400
H2337       H  0.80177930  0.60687928  0.46186771     0.28900
H2338       H  0.91572632  0.70434629  0.30511543     0.28900
H2339       H  0.89857276  0.71112369  0.42856199     0.19500
H2340       H  0.79927974  0.61859252  0.33742807     0.19500
C2341       C  0.86238201  0.73197726  0.09512451    -0.06300
C2342       C  0.89044941  0.73631858  0.11582153    -0.17400
C2343       C  0.88624311  0.72175592  0.15439809     0.10900
C2344       C  0.85370233  0.70577830  0.17233293    -0.06200
C2345       C  0.83196678  0.71628877  0.15755452    -0.17400
C2346       C  0.83773503  0.73188351  0.11927741     0.10900
S2347       S  0.92346682  0.72469907  0.17601478    -0.32400
S2348       S  0.81576526  0.75290868  0.10172612    -0.32400
H2349       H  0.79438316  0.74368167  0.13605832     0.28900
H2350       H  0.92042017  0.73116108  0.21926005     0.28900
H2351       H  0.91303652  0.74408001  0.09868473     0.19500
H2352       H  0.81194859  0.71419269  0.17639941     0.19500
C2353       C  0.85359256  0.71295656  0.55166603     0.29800
C2354       C  0.84277087  0.68603953  0.96982931     0.29800
C2355       C  0.81580311  0.68743944  0.53606589    -0.06400
C2356       C  0.86882689  0.74211489  0.52014472    -0.07100
C2357       C  0.86696345  0.68747461  0.53978501    -0.07000
C2358       C  0.81004361  0.67435170  0.99323155    -0.06400
C2359       C  0.86302717  0.72904155  0.97809057    -0.07100
C2360       C  0.86128375  0.67438310  0.99776413    -0.07000
C2361       C  0.77528462  0.65470542  0.98492029    -0.32400
N2362       N  0.76006043  0.65330939  0.02194861     0.14100
C2363       C  0.78450752  0.67225950  0.55337684    -0.32400
H2364       H  0.77941690  0.67438364  0.58647427     0.16000
C2365       C  0.87950782  0.76021891  0.95508913    -0.31400
N2366       N  0.89558899  0.79104610  0.48315301     0.12800
C2367       C  0.88902070  0.78024769  0.52296318    -0.31400
C2368       C  0.87402424  0.65233572  0.99092660    -0.31700
N2369       N  0.88672843  0.65040194  0.02829190     0.13300
H2370       H  0.87386433  0.63838082  0.96079852     0.15900
C2371       C  0.88279123  0.67184365  0.55864060    -0.31700
H2372       H  0.89023459  0.67485603  0.59182628     0.15900
H2373       H  0.89866973  0.79891253  0.55180778     0.15900
H2374       H  0.76183910  0.64237254  0.95444826     0.16000
H2375       H  0.88061003  0.76055803  0.92089212     0.15900
C2376       C  0.84633692  0.67907330  0.79639421     0.29800
C2377       C  0.84790255  0.69193437  0.71468217     0.29800
C2378       C  0.81169403  0.66623009  0.77530660    -0.06400
C2379       C  0.86715013  0.72054612  0.78821365    -0.07100
C2380       C  0.85878558  0.65978929  0.76661632    -0.07000
C2381       C  0.81183920  0.67136564  0.73240642    -0.06400
C2382       C  0.86797059  0.72637264  0.74626334    -0.07100
C2383       C  0.85982345  0.66612327  0.72447311    -0.07000
C2384       C  0.77802020  0.65373994  0.71835687    -0.32400
N2385       N  0.75820824  0.64010716  0.75228380     0.14100
C2386       C  0.77898610  0.64986190  0.78729192    -0.32400
H2387       H  0.77057071  0.64501940  0.81932528     0.16000
C2388       C  0.88425051  0.76399238  0.74311092    -0.31400
N2389       N  0.89297192  0.78198672  0.78251374     0.12800
C2390       C  0.88175170  0.75550469  0.81079486    -0.31400
C2391       C  0.86958898  0.64418232  0.70304351    -0.31700
N2392       N  0.87504940  0.62579144  0.73210313     0.13300
H2393       H  0.87284787  0.64204129  0.66924529     0.15900
C2394       C  0.86793418  0.63468330  0.77084474    -0.31700
H2395       H  0.87000292  0.62418551  0.80011622     0.15900
H2396       H  0.88294708  0.76097938  0.84496028     0.15900
H2397       H  0.76852951  0.65001072  0.68591094     0.16000
H2398       H  0.88868850  0.77736089  0.71388426     0.15900
C2399       C  0.61614296  0.56420285  0.53998092     0.76300
Tb2400     Tb  0.97252007  0.51949177  0.54274642     1.80700
O2401       O  0.59950391  0.55443281  0.57321518    -0.51700
O2402       O  0.56334642  0.97543028  0.55982804    -0.59200
C2403       C  0.54683429  0.58785120  0.55643666     0.92100
O2404       O  0.97787298  0.57808789  0.55527771    -0.58700
Tb2405     Tb  0.54547224  0.51394563  0.53752042     1.78100
O2406       O  0.92860410  0.96264213  0.56959968    -0.59200
O2407       O  0.49281842  0.95795331  0.53915915    -0.78000
O2408       O  0.55306768  0.57138916  0.52690562    -0.77300
O2409       O  0.53005518  0.51458099  0.96164973    -0.62600
C2410       C  0.97055470  0.94684259  0.50929931     0.91700
O2411       O  0.98603074  0.51396956  0.61777177    -0.74500
C2412       C  0.90722951  0.47175158  0.57337799     0.75100
C2413       C  0.56601680  0.96320562  0.52355071     0.76100
O2414       O  0.59763660  0.54985256  0.00640672    -0.59800
O2415       O  0.55688296  0.97467866  0.49406657    -0.51700
O2416       O  0.98707067  0.52260656  0.96445545    -0.77800
O2417       O  0.53404739  0.51528825  0.61635659    -0.61800
C2418       C  0.51004992  0.51406960  0.63872962     0.89900
C2419       C  0.50859996  0.51921749  0.94135836     0.91100
C2420       C  0.95373650  0.57111651  0.03049463     0.75500
O2421       O  0.91843111  0.50373879  0.56247110    -0.51100
O2422       O  0.94086180  0.03975605  0.00970827    -0.52300
O2423       O  0.96359374  0.96935580  0.49684321    -0.65100
O2424       O  0.52218082  0.56861243  0.57887718    -0.66300
C2425       C  0.61476023  0.56354546  0.77352766     0.76300
Tb2426     Tb  0.97075715  0.51408945  0.78598898     1.80700
O2427       O  0.60495713  0.55711868  0.81084448    -0.51700
O2428       O  0.57958728  0.00105384  0.83219855    -0.59200
C2429       C  0.54610576  0.59143335  0.79768859     0.92100
O2430       O  0.96082021  0.56212417  0.78200716    -0.58700
Tb2431     Tb  0.54673527  0.51695002  0.79412312     1.78100
O2432       O  0.91736660  0.95840636  0.78494228    -0.59200
O2433       O  0.49846689  0.96068113  0.81067654    -0.78000
O2434       O  0.55517771  0.57423715  0.81916440    -0.77300
O2435       O  0.53256948  0.51407106  0.71478151    -0.62600
C2436       C  0.97284305  0.94217440  0.78538167     0.91700
O2437       O  0.98551863  0.51828549  0.86535038    -0.74500
C2438       C  0.90526333  0.46837674  0.81452864     0.75100
C2439       C  0.57046315  0.97100625  0.81058088     0.76100
O2440       O  0.59047399  0.54789543  0.74581141    -0.59800
O2441       O  0.54885800  0.96293046  0.78085281    -0.51700
O2442       O  0.98487463  0.51297546  0.71037029    -0.77800
O2443       O  0.53372033  0.52050997  0.86974227    -0.61800
C2444       C  0.50907833  0.51956311  0.88927978     0.89900
C2445       C  0.50939600  0.51357991  0.69084778     0.94500
C2446       C  0.93731068  0.54606167  0.75347330     0.75500
O2447       O  0.92671587  0.50043449  0.83210000    -0.51100
O2448       O  0.93050314  0.01415772  0.74047002    -0.52300
O2449       O  0.96712460  0.95963842  0.75990908    -0.65100
O2450       O  0.51772111  0.57388315  0.77740303    -0.66300
C2451       C  0.67847403  0.83479905  0.52029191     0.29800
C2452       C  0.67350194  0.85322273  0.60106269     0.29800
C2453       C  0.66284513  0.85871319  0.52713882    -0.06400
C2454       C  0.65824471  0.80232789  0.54690874    -0.07100
C2455       C  0.71280092  0.85854911  0.54570981    -0.07000
C2456       C  0.66044885  0.86751600  0.56878662    -0.06400
C2457       C  0.65456203  0.81044346  0.58828927    -0.07100
C2458       C  0.71007873  0.86714837  0.58822789    -0.07000
C2459       C  0.64312823  0.88501480  0.57091762    -0.32400
N2460       N  0.63377804  0.88651567  0.53099643     0.14100
C2461       C  0.64635830  0.87134580  0.50359251    -0.32400
H2462       H  0.64215672  0.86795866  0.46943887     0.16000
C2463       C  0.63426868  0.77572722  0.60486269    -0.31400
N2464       N  0.62677702  0.74803322  0.57370321     0.12800
C2465       C  0.64206652  0.76464389  0.53863597    -0.31400
C2466       C  0.74196848  0.88362932  0.60795563    -0.31700
N2467       N  0.76411481  0.88743467  0.57815668     0.13300
H2468       H  0.74870813  0.89171441  0.64153558     0.15900
C2469       C  0.74678139  0.87332232  0.53989200    -0.31700
H2470       H  0.75849501  0.87456388  0.51017345     0.15900
H2471       H  0.64122907  0.75016937  0.50861209     0.15900
H2472       H  0.63645612  0.89451650  0.59964352     0.16000
H2473       H  0.62521844  0.77092446  0.63667451     0.15900
C2474       C  0.67269741  0.84700005  0.76923467     0.29800
C2475       C  0.67318607  0.83557958  0.85071092     0.29800
C2476       C  0.65263384  0.85764084  0.79748247    -0.06400
C2477       C  0.65981822  0.80669851  0.77702197    -0.07100
C2478       C  0.70842905  0.86885693  0.79222585    -0.07000
C2479       C  0.65301646  0.85301003  0.83971860    -0.06400
C2480       C  0.66055373  0.80147070  0.81910610    -0.07100
C2481       C  0.70833021  0.86358093  0.83505155    -0.07000
C2482       C  0.64090112  0.87354605  0.85981191    -0.32400
N2483       N  0.63098492  0.88733633  0.82933750     0.14100
C2484       C  0.63826960  0.87742733  0.79138860    -0.32400
H2485       H  0.63516048  0.88599913  0.76120538     0.16000
C2486       C  0.64810134  0.76455287  0.82242412    -0.31400
N2487       N  0.63872120  0.74658885  0.78310514     0.12800
C2488       C  0.64576111  0.77197953  0.75467121    -0.31400
C2489       C  0.74147719  0.88124529  0.85015252    -0.31700
N2490       N  0.76162078  0.89433981  0.81700142     0.13300
H2491       H  0.75058173  0.88258476  0.88215778     0.15900
C2492       C  0.74191655  0.88657605  0.78128407    -0.31700
H2493       H  0.75124548  0.89180197  0.74959906     0.15900
H2494       H  0.63932846  0.76533809  0.72089935     0.15900
H2495       H  0.64094001  0.87946115  0.89371286     0.16000
H2496       H  0.64347150  0.75105489  0.85159307     0.15900
C2497       C  0.67413997  0.81895383  0.97634091    -0.06300
C2498       C  0.64205143  0.80413078  0.95661941    -0.17400
C2499       C  0.63983863  0.80682827  0.91412969     0.10900
C2500       C  0.67064537  0.82362492  0.89314984    -0.06200
C2501       C  0.69705212  0.82113601  0.90987604    -0.17400
C2502       C  0.69906498  0.81867336  0.95280864     0.10900
S2503       S  0.59804050  0.79053626  0.89162340    -0.32400
S2504       S  0.72636848  0.80491397  0.97231291    -0.32400
H2505       H  0.71041250  0.79336721  0.51081172     0.28900
H2506       H  0.60240774  0.78125479  0.84982454     0.28900
H2507       H  0.62000678  0.79604064  0.97511636     0.19500
H2508       H  0.71546641  0.82066379  0.88980163     0.19500
C2509       C  0.66877256  0.85446830  0.72599295    -0.06300
C2510       C  0.69441055  0.88856598  0.71168225    -0.17400
C2511       C  0.69390270  0.89421364  0.66961013     0.10900
C2512       C  0.66796833  0.86450873  0.64345871    -0.06200
C2513       C  0.63711550  0.83996811  0.66042225    -0.17400
C2514       C  0.63714922  0.83303119  0.70207519     0.10900
S2515       S  0.72442705  0.93953034  0.65222345    -0.32400
S2516       S  0.59642678  0.79585271  0.71901661    -0.32400
H2517       H  0.60170598  0.79997440  0.76307538     0.28900
H2518       H  0.70858629  0.93329879  0.61201239     0.28900
H2519       H  0.71441603  0.91077235  0.73274726     0.19500
H2520       H  0.61457803  0.82193998  0.63985598     0.19500
C2521       C  0.61571070  0.70702150  0.77711799    -0.06300
C2522       C  0.58119243  0.69296612  0.78042847    -0.17400
C2523       C  0.55833854  0.65620991  0.78970016     0.10900
C2524       C  0.56974160  0.63196137  0.79371636    -0.06200
C2525       C  0.60444293  0.64615975  0.79004140    -0.17400
C2526       C  0.62736686  0.68323399  0.78145135     0.10900
S2527       S  0.51626669  0.64392297  0.80162941    -0.32400
S2528       S  0.67149097  0.69939176  0.77788765    -0.32400
H2529       H  0.68046204  0.73040366  0.75534942     0.28900
H2530       H  0.51244716  0.62087517  0.83363214     0.28900
H2531       H  0.57268862  0.71194628  0.77976645     0.19500
H2532       H  0.61378677  0.62828293  0.79362863     0.19500
C2533       C  0.86866162  0.94625151  0.82302289    -0.06300
C2534       C  0.84771790  0.91248854  0.79766478    -0.17400
C2535       C  0.81244431  0.89428627  0.79626722     0.10900
C2536       C  0.79749707  0.91056011  0.81965050    -0.06200
C2537       C  0.81794941  0.94264097  0.84731409    -0.17400
C2538       C  0.85323434  0.96029661  0.84990053     0.10900
S2539       S  0.78782376  0.85020060  0.76463229    -0.32400
S2540       S  0.87676537  0.50107405  0.88699245    -0.32400
H2541       H  0.89835279  0.49055645  0.90206965     0.28900
H2542       H  0.76015796  0.83462002  0.79108915     0.28900
H2543       H  0.85885272  0.90057340  0.77775922     0.19500
H2544       H  0.80624026  0.95424839  0.86657389     0.19500
C2545       C  0.61898563  0.91215073  0.83277691    -0.06300
C2546       C  0.63195776  0.94051192  0.80484737    -0.17400
C2547       C  0.61508852  0.95776154  0.79520488     0.10900
C2548       C  0.58630723  0.94994613  0.81731181    -0.06200
C2549       C  0.57508452  0.92462866  0.84881387    -0.17400
C2550       C  0.59052739  0.90481585  0.85591833     0.10900
S2551       S  0.63111971  0.98831290  0.75291209    -0.32400
S2552       S  0.57210343  0.86986073  0.89325462    -0.32400
H2553       H  0.57319814  0.84277946  0.86663306     0.28900
H2554       H  0.59977037  0.98066390  0.73736496     0.28900
H2555       H  0.65419652  0.94716953  0.78754051     0.19500
H2556       H  0.55346867  0.91927475  0.86679872     0.19500
C2557       C  0.60438192  0.70790028  0.57305766    -0.06300
C2558       C  0.58454257  0.68828886  0.53542730    -0.17400
C2559       C  0.56664954  0.64953397  0.52890782     0.10900
C2560       C  0.56590067  0.62887872  0.56206314    -0.06200
C2561       C  0.58429134  0.64789284  0.60062314    -0.17400
C2562       C  0.60460755  0.68716590  0.60581186     0.10900
S2563       S  0.54574920  0.62849149  0.97712940    -0.32400
S2564       S  0.63244161  0.70867317  0.65271057    -0.32400
H2565       H  0.66003194  0.73616970  0.63150838     0.28900
H2566       H  0.51812702  0.59576510  0.99108474     0.28900
H2567       H  0.58381438  0.70351471  0.00996828     0.19500
H2568       H  0.58444596  0.63207510  0.62580573     0.19500
C2569       C  0.87179701  0.94762697  0.58584558    -0.06300
C2570       C  0.85304469  0.90974161  0.57088192    -0.17400
C2571       C  0.81740941  0.88860357  0.57065283     0.10900
C2572       C  0.80026745  0.90581155  0.58508698    -0.06200
C2573       C  0.81915050  0.94245782  0.60419368    -0.17400
C2574       C  0.85462967  0.96332380  0.60525526     0.10900
S2575       S  0.79388185  0.83968587  0.05234112    -0.32400
S2576       S  0.87660245  0.51020382  0.63079323    -0.32400
H2577       H  0.90551792  0.51076329  0.64404338     0.28900
H2578       H  0.82196091  0.83785813  0.54127895     0.28900
H2579       H  0.86616119  0.89736915  0.55702282     0.19500
H2580       H  0.80609723  0.95536159  0.61679718     0.19500
C2581       C  0.57934735  0.93881258  0.51724226    -0.06300
C2582       C  0.56725801  0.90889163  0.54251056    -0.17400
C2583       C  0.58265528  0.88867139  0.54372180     0.10900
C2584       C  0.61230643  0.89983674  0.52127268    -0.06200
C2585       C  0.62312949  0.92814536  0.49374805    -0.17400
C2586       C  0.60655922  0.94722120  0.49087852     0.10900
S2587       S  0.56337559  0.84889294  0.57471936    -0.32400
S2588       S  0.62348613  0.48455018  0.45656212    -0.32400
H2589       H  0.59182124  0.47157748  0.43635573     0.28900
H2590       H  0.57518412  0.82946786  0.55079762     0.28900
H2591       H  0.54581078  0.90145640  0.56190356     0.19500
H2592       H  0.64556547  0.93662801  0.47602520     0.19500
C2593       C  0.88921402  0.60350931  0.72584663    -0.06300
C2594       C  0.86919549  0.56565738  0.73321778    -0.17400
C2595       C  0.88391856  0.54505979  0.73901675     0.10900
C2596       C  0.91948138  0.56305139  0.73810610    -0.06200
C2597       C  0.93902648  0.59996812  0.72736519    -0.17400
C2598       C  0.92433070  0.62037410  0.72144488     0.10900
S2599       S  0.85749450  0.49695238  0.75071331    -0.32400
S2600       S  0.95214986  0.66872755  0.71218573    -0.32400
H2601       H  0.93689885  0.68169794  0.74031564     0.28900
H2602       H  0.82668688  0.49509479  0.75180035     0.28900
H2603       H  0.84230409  0.55305079  0.73681286     0.19500
H2604       H  0.96624708  0.61364314  0.72581320     0.19500
C2605       C  0.90955819  0.82204662  0.78970691    -0.06300
C2606       C  0.90057000  0.83993229  0.76197534    -0.17400
C2607       C  0.92083487  0.87834626  0.75873754     0.10900
C2608       C  0.94987682  0.90088247  0.78661678    -0.06200
C2609       C  0.95710962  0.88333002  0.81721478    -0.17400
C2610       C  0.93794001  0.84438528  0.81835746     0.10900
S2611       S  0.90906418  0.89553521  0.71599105    -0.32400
S2612       S  0.95265248  0.82508641  0.85476507    -0.32400
H2613       H  0.95097263  0.79881310  0.82367621     0.28900
H2614       H  0.94074456  0.91113979  0.69760937     0.28900
H2615       H  0.87857312  0.82326493  0.74022704     0.19500
H2616       H  0.97892180  0.89984440  0.83927990     0.19500
C2617       C  0.72158233  0.61796798  0.75274945    -0.06300
C2618       C  0.70186135  0.62552685  0.72704467    -0.17400
C2619       C  0.66666218  0.60789712  0.73170042     0.10900
C2620       C  0.65124720  0.58382526  0.76456155    -0.06200
C2621       C  0.67108983  0.57618936  0.78953456    -0.17400
C2622       C  0.70492587  0.59043533  0.78180261     0.10900
S2623       S  0.64375801  0.61819810  0.69529427    -0.32400
S2624       S  0.72409265  0.56915031  0.80692861    -0.32400
H2625       H  0.74573223  0.57396451  0.77378789     0.28900
H2626       H  0.61719992  0.61112885  0.72132023     0.28900
H2627       H  0.71401820  0.64580152  0.70385028     0.19500
H2628       H  0.65940986  0.55647537  0.81346604     0.19500
C2629       C  0.93830718  0.59364959  0.02984988    -0.06300
C2630       C  0.90525078  0.57581107  0.01150270    -0.17400
C2631       C  0.88692788  0.59280760  0.01395875     0.10900
C2632       C  0.90227198  0.62960105  0.03310004    -0.06200
C2633       C  0.93492775  0.64736861  0.55240588    -0.17400
C2634       C  0.95299464  0.62980899  0.05122194     0.10900
S2635       S  0.84325617  0.56525535  0.99418393    -0.32400
S2636       S  0.99481240  0.65544522  0.57653494    -0.32400
H2637       H  0.00876067  0.64784606  0.54118390     0.28900
H2638       H  0.83219411  0.58290562  0.02269812     0.28900
H2639       H  0.89279424  0.54755198  0.99661824     0.19500
H2640       H  0.94687292  0.67563809  0.56712369     0.19500
C2641       C  0.91651928  0.82928148  0.47447738    -0.06300
C2642       C  0.90091463  0.84842460  0.96625307    -0.17400
C2643       C  0.91869686  0.88739695  0.97330485     0.10900
C2644       C  0.95255866  0.90750250  0.49066058    -0.06200
C2645       C  0.96893448  0.88833666  0.49437544    -0.17400
C2646       C  0.95141416  0.84966303  0.48589547     0.10900
S2647       S  0.89557632  0.90887689  0.96363836    -0.32400
S2648       S  0.97396193  0.82722326  0.49404658    -0.32400
H2649       H  0.95114807  0.79396947  0.46899854     0.28900
H2650       H  0.91979810  0.93398412  0.93677137     0.28900
H2651       H  0.87404551  0.83265067  0.95744007     0.19500
H2652       H  0.99518656  0.90328633  0.50591730     0.19500
C2653       C  0.65344021  0.58924581  0.53900731    -0.06300
C2654       C  0.66674520  0.61414955  0.00714015    -0.17400
C2655       C  0.70172872  0.63672815  0.00216870     0.10900
C2656       C  0.72414759  0.63323926  0.52820622    -0.06200
C2657       C  0.71096716  0.60932048  0.56105065    -0.17400
C2658       C  0.67600867  0.58735066  0.56670749     0.10900
S2659       S  0.71627930  0.67076807  0.96370636    -0.32400
S2660       S  0.66177655  0.55589670  0.60802347    -0.32400
H2661       H  0.63557110  0.52523998  0.58243216     0.28900
H2662       H  0.74680770  0.69743294  0.98655116     0.28900
H2663       H  0.64971981  0.61643207  0.98626749     0.19500
H2664       H  0.72802060  0.60677467  0.58150114     0.19500
C2665       C  0.84368237  0.67336260  0.92547065    -0.06300
C2666       C  0.87585976  0.69262085  0.90840910    -0.17400
C2667       C  0.87873195  0.69157511  0.86543906     0.10900
C2668       C  0.84818344  0.67102060  0.84030454    -0.06200
C2669       C  0.81944071  0.64163436  0.85760438    -0.17400
C2670       C  0.81704361  0.64213601  0.90121973     0.10900
S2671       S  0.92140463  0.71952795  0.84719430    -0.32400
S2672       S  0.78443143  0.59995081  0.92253939    -0.32400
H2673       H  0.80177931  0.60687960  0.96186694     0.28900
H2674       H  0.91572733  0.70434954  0.80511526     0.28900
H2675       H  0.89857333  0.71112428  0.92856243     0.19500
H2676       H  0.79928076  0.61859393  0.83742766     0.19500
C2677       C  0.86238171  0.73197731  0.59512395    -0.06300
C2678       C  0.89044962  0.73631942  0.61582073    -0.17400
C2679       C  0.88624395  0.72175784  0.65439796     0.10900
C2680       C  0.85370338  0.70578031  0.67233325    -0.06200
C2681       C  0.83196738  0.71629018  0.65755473    -0.17400
C2682       C  0.83773489  0.73188379  0.61927695     0.10900
S2683       S  0.92346812  0.72470187  0.67601454    -0.32400
S2684       S  0.81576446  0.75290810  0.60172522    -0.32400
H2685       H  0.79438265  0.74368143  0.63605771     0.28900
H2686       H  0.92042124  0.73116330  0.71925987     0.28900
H2687       H  0.91303611  0.74408049  0.59868393     0.19500
H2688       H  0.81194963  0.71419433  0.67639958     0.19500
loop_ 
_geom_bond_atom_site_label_1 
_geom_bond_atom_site_label_2 
_geom_bond_distance 
_geom_bond_site_symmetry_2 
_ccdc_geom_bond_type 
C1            C3   1.550       .  S
C1            C5   1.552       .  S
C1            C4   1.509       .  S
C1          C325   1.479       .  S
C2            C6   1.545       .  S
C2            C8   1.521       .  S
C2            C7   1.546       .  S
C2          C313   1.474       .  S
C3           C11   1.380       .  A
C3          C342   1.393   1_554  A
C4           C15   1.368       .  A
C4          C343   1.370   1_554  A
C5           C19   1.397       .  A
C5          C344   1.369   1_554  A
C6            C9   1.386       .  A
C6          C339   1.393       .  A
C7           C13   1.390       .  A
C7          C340   1.370       .  A
C8           C16   1.371       .  A
C8          C341   1.369       .  A
C9           N10   1.361       .  A
C9           H22   1.079       .  S
N10         C347   1.352       .  A
N10         C640   1.442       .  S
C11         N346   1.352       .  A
C11          H12   1.081       .  S
C13         N350   1.357       .  A
C13          H23   1.082       .  S
N14          C15   1.350   1_556  A
N14         C349   1.357       .  A
N14         C289   1.429       .  S
C15          H21   1.083       .  S
C16          N17   1.349       .  A
C16          H18   1.084       .  S
N17         C355   1.361       .  A
N17         C280   1.440       .  S
C19         N353   1.361       .  A
C19          H20   1.080       .  S
C24          C26   1.538       .  S
C24          C28   1.523       .  S
C24          C27   1.536       .  S
C24         C316   1.466       .  S
C25          C29   1.555       .  S
C25          C31   1.533       .  S
C25          C30   1.526       .  S
C25         C328   1.468       .  S
C26          C34   1.368       .  A
C26          C29   1.388       .  A
C27          C38   1.395       .  A
C27          C30   1.363       .  A
C28          C42   1.371       .  A
C28          C31   1.373       .  A
C29          C32   1.392       .  A
C30          C36   1.369       .  A
C31          C39   1.388       .  A
C32          N33   1.365       .  A
C32          H45   1.082       .  S
N33          C34   1.355       .  A
N33         C265   1.447       .  S
C34          H35   1.080       .  S
C36          N37   1.351       .  A
C36          H46   1.082       .  S
N37          C38   1.365       .  A
N37         C253   1.446       .  S
C38          H44   1.082       .  S
C39          N40   1.360       .  A
C39          H41   1.083       .  S
N40          C42   1.351       .  A
N40         C241   1.433       .  S
C42          H43   1.083       .  S
C47          O49   1.265       .  A
C47         O398   1.256       .  A
C47         C301   1.480       .  S
Tb48         O59   2.512       .  S
Tb48         O52   2.383       .  S
Tb48         O69   2.348       .  S
Tb48       O1078   2.361       .  S
Tb48        O743   2.334   1_544  S
Tb48        O726   2.401   1_545  S
Tb48        O400   2.560   1_554  S
Tb48       O1416   2.342       .  S
O49         Tb53   2.377       .  S
O50          C61   1.260       .  A
O50        Tb725   2.363       .  S
C51          O56   1.258       .  A
C51          O72   1.256       .  A
C51         C208   1.471       .  S
O52         C404   1.258       .  A
Tb53         O56   2.335       .  S
Tb53         O65   2.551       .  S
Tb53        O722   2.363   1_545  S
Tb53        O393   2.507   1_554  S
Tb53        O398   2.342       .  S
Tb53        O735   2.375   1_544  S
Tb53        O727   2.336   1_445  S
O54         C732   1.262       .  A
O54        Tb720   2.401       .  S
O55        C1402   1.265       .  A
O55        Tb725   2.336   1_655  S
O57          C67   1.303       .  A
O57        Tb389   2.507       .  S
C58          O71   1.259   1_554  A
C58        O1399   1.265       .  A
C58         C292   1.485   1_554  S
O59        C1410   1.305       .  A
C60          O69   1.248   1_565  A
C60         O726   1.262       .  A
C60         C889   1.480       .  S
C61          O63   1.259   1_554  A
C61         C229   1.484       .  S
O62         C383   1.256       .  A
O62        Tb389   2.342       .  S
O63        Tb725   2.375   1_556  S
O64        C1411   1.313       .  A
O64        Tb384   2.560       .  S
O65          C66   1.311       .  A
C66        O1403   1.305   1_455  A
C66          C93   1.648       .  S
C67        O1408   1.313   1_455  A
C67          C92   1.646       .  S
C68         O388   1.258       .  A
C68         O742   1.260       .  A
C68         C277   1.489       .  S
O70         C740   1.260       .  A
O70       Tb1056   2.361       .  S
O71        Tb720   2.334   1_556  S
O72       Tb1392   2.342   1_455  S
C73          O88   1.264       .  A
C73          O75   1.261       .  A
C73         C268   1.483       .  S
Tb74         O90   2.484       .  S
Tb74         O85   2.566       .  S
Tb74         O78   2.353       .  S
Tb74         O95   2.361       .  S
Tb74        O768   2.374       .  S
Tb74        O769   2.329   1_545  S
Tb74        O752   2.341   1_545  S
Tb74       O1442   2.339       .  S
O75         Tb79   2.341       .  S
O76          C87   1.256       .  A
O76        Tb751   2.354       .  S
C77          O82   1.263       .  A
C77          O98   1.262       .  A
C77         C172   1.484       .  S
O78          C94   1.259       .  A
Tb79         O83   2.568       .  S
Tb79         O88   2.380       .  S
Tb79         O82   2.336       .  S
Tb79         O91   2.481       .  S
Tb79        O748   2.354       .  S
Tb79        O761   2.375   1_545  S
Tb79        O753   2.342   1_445  S
O80         C758   1.260       .  A
O80        Tb746   2.341       .  S
O81        C1428   1.258       .  A
O81        Tb751   2.342   1_655  S
O83          C93   1.314       .  A
C84          O97   1.258       .  A
C84        O1425   1.258       .  A
C84         C256   1.494       .  S
O85        C1436   1.313       .  A
C86          O95   1.262   1_565  A
C86         O752   1.260       .  A
C86         C853   1.483       .  S
C87          O89   1.264       .  A
C87         C196   1.472       .  S
O89        Tb751   2.375       .  S
O90        C1437   1.297       .  A
O91          C92   1.296       .  A
C92        O1429   1.313   1_455  A
C93        O1434   1.297   1_455  A
C94         O768   1.257       .  A
C94         C244   1.475       .  S
O96         C766   1.257       .  A
O96        Tb746   2.374       .  S
O97        Tb746   2.329       .  S
O98       Tb1418   2.339   1_455  S
C99         C101   1.555       .  S
C99         C103   1.541       .  S
C99         C102   1.511       .  S
C99         C481   1.463   1_554  S
C100        C104   1.511       .  S
C100        C106   1.550       .  S
C100        C105   1.559       .  S
C100        C160   1.462       .  S
C101        C109   1.398       .  A
C101        C104   1.363       .  A
C102        C113   1.362       .  A
C102        C105   1.363       .  A
C103        C117   1.381       .  A
C103        C106   1.391       .  A
C104        C107   1.372       .  A
C105        C111   1.404       .  A
C106        C114   1.384       .  A
C107        N108   1.351       .  A
C107        H120   1.083       .  S
N108        C109   1.363       .  A
N108        C232   1.444       .  S
C109        H110   1.081   1_554  S
C111        N112   1.369       .  A
C111        H121   1.082       .  S
N112        C113   1.346       .  A
N112        C205   1.447       .  S
C113        H119   1.083       .  S
C114        N115   1.356       .  A
C114        H116   1.082       .  S
N115        C117   1.358       .  A
N115        C220   1.441       .  S
C117        H118   1.079       .  S
C122        C124   1.518       .  S
C122        C126   1.553       .  S
C122        C125   1.527       .  S
C122        C157   1.458       .  S
C123        C127   1.542       .  S
C123        C129   1.534       .  S
C123        C128   1.525       .  S
C123        C148   1.451       .  S
C124        C132   1.361       .  A
C124        C127   1.364       .  A
C125        C136   1.387       .  A
C125        C128   1.367       .  A
C126        C140   1.385       .  A
C126        C129   1.387       .  A
C127        C130   1.401       .  A
C128        C134   1.368       .  A
C129        C137   1.375       .  A
C130        N131   1.367       .  A
C130        H143   1.082       .  S
N131        C132   1.349       .  A
N131        C193   1.446       .  S
C132        H133   1.083       .  S
C134        N135   1.348       .  A
C134        H144   1.082       .  S
N135        C136   1.360       .  A
N135        C169   1.428       .  S
C136        H142   1.082       .  S
C137        N138   1.350       .  A
C137        H139   1.082       .  S
N138        C140   1.359       .  A
N138        C184   1.433       .  S
C140        H141   1.083       .  S
C145        C435   1.463       .  S
C145        C146   1.401       .  A
C145        C150   1.394       .  A
C146        C147   1.364       .  A
C146        H155   1.085       .  S
C147        C148   1.413       .  A
C147        S151   1.812       .  S
C148        C149   1.406       .  A
C149        C150   1.374       .  A
C149        H156   1.082       .  S
C150        S152   1.800       .  S
S151        H154   1.398       .  S
S152        H489   1.405       .  S
H153        S488   1.405   1_554  S
C157        C158   1.406       .  A
C157        C162   1.427       .  A
C158        C159   1.370       .  A
C158        H167   1.079       .  S
C159        C160   1.395       .  A
C159        S163   1.806       .  S
C160        C161   1.388       .  A
C161        C162   1.370       .  A
C161        H168   1.084       .  S
C162        S164   1.819       .  S
S163        H166   1.403       .  S
S164        H165   1.394       .  S
C169        C170   1.398       .  A
C169        C174   1.407       .  A
C170        C171   1.397       .  A
C170        H179   1.084       .  S
C171        C172   1.415       .  A
C171        S175   1.798       .  S
C172        C173   1.407       .  A
C173        C174   1.401       .  A
C173        H180   1.081       .  S
C174        S176   1.802       .  S
S175        H178   1.407       .  S
S176        H177   1.407       .  S
C181        C182   1.408       .  A
C181        C186   1.417       .  A
C181        C758   1.483       .  S
C182        C183   1.397       .  A
C182        H191   1.083       .  S
C183        C184   1.408       .  A
C183        S187   1.802       .  S
C184        C185   1.401       .  A
C185        C186   1.399       .  A
C185        H192   1.083       .  S
C186        S860   1.801       .  S
S187        H190   1.407       .  S
S188        C858   1.801   1_545  S
S188        H189   1.408   1_545  S
C193        C194   1.407       .  A
C193        C198   1.416       .  A
C194        C195   1.390       .  A
C194        H203   1.084       .  S
C195        C196   1.406       .  A
C195        S199   1.803       .  S
C196        C197   1.408       .  A
C197        C198   1.411       .  A
C197        H204   1.085       .  S
C198        S200   1.799       .  S
S199        H202   1.403       .  S
S200        H201   1.406       .  S
C205        C206   1.409       .  A
C205        C210   1.415       .  A
C206        C207   1.392       .  A
C206        H551   1.083       .  S
C207        C208   1.407       .  A
C207        S547   1.808   1_554  S
C208        C209   1.407       .  A
C209        C210   1.408       .  A
C209        H216   1.084       .  S
C210        S212   1.799       .  S
S211        C543   1.808       .  S
S211        H214   1.401       .  S
S212        H213   1.407       .  S
H215        C542   1.083       .  S
C217        C218   1.402       .  A
C217        C222   1.417       .  A
C217        C732   1.480       .  S
C218        C219   1.407       .  A
C218        H227   1.083       .  S
C219        C220   1.413       .  A
C219        S559   1.803       .  S
C220        C221   1.401       .  A
C221        C222   1.400       .  A
C221        H228   1.085       .  S
C222        S896   1.804       .  S
S223        C555   1.803       .  S
S223        H562   1.407       .  S
S224        C894   1.804   1_545  S
S224        H225   1.408       .  S
H226        S559   1.407       .  S
C229        C230   1.401       .  A
C229        C234   1.417   1_554  A
C230        C231   1.399       .  A
C230        H239   1.084       .  S
C231        C232   1.416       .  A
C231        S235   1.803       .  S
C232        C233   1.403   1_554  A
C233        C234   1.407       .  A
C233        H240   1.084       .  S
C234        S908   1.799       .  S
S235        H238   1.407       .  S
S236        C906   1.799       .  S
S236        H237   1.406       .  S
C241        C242   1.403       .  A
C241        C246   1.410       .  A
C242        C243   1.405       .  A
C242        H251   1.082       .  S
C243        C244   1.412       .  A
C243        S247   1.805   1_545  S
C244        C245   1.400       .  A
C245        C246   1.397       .  A
C245        H252   1.083       .  S
C246        S248   1.798       .  S
S247        H250   1.407       .  S
S248        H249   1.405       .  S
C253        C254   1.406       .  A
C253        C258   1.413       .  A
C254        C255   1.396       .  A
C254        H263   1.084       .  S
C255        C256   1.418       .  A
C255        S259   1.803       .  S
C256        C257   1.412       .  A
C257        C258   1.404       .  A
C257        H264   1.084       .  S
C258        S260   1.799       .  S
S259        H262   1.408       .  S
S260        H261   1.406       .  S
C265        C266   1.408       .  A
C265        C270   1.416       .  A
C266        C267   1.411       .  A
C266        H275   1.083       .  S
C267        C268   1.419       .  A
C267        S271   1.804       .  S
C268        C269   1.401       .  A
C269        C270   1.390       .  A
C269        H276   1.085       .  S
C270        S272   1.806       .  S
S271        H274   1.399       .  S
S272        H273   1.408       .  S
C277        C278   1.406       .  A
C277        C282   1.419       .  A
C278        C279   1.396       .  A
C278        H287   1.084       .  S
C279        C280   1.412       .  A
C279        S283   1.804       .  S
C280        C617   1.402       .  A
C281        C616   1.402       .  A
C281        C618   1.405       .  A
C281        H288   1.084       .  S
C282        C617   1.405       .  A
C282        S620   1.797       .  S
S283        H286   1.407       .  S
S284        C618   1.797       .  S
S284        H285   1.401       .  S
C289        C294   1.407       .  A
C289        C626   1.399       .  A
C290        C291   1.401       .  A
C290        C625   1.399       .  A
C290        H299   1.083       .  S
C291        C628   1.419       .  A
C291        S295   1.800       .  S
C292        C293   1.406       .  A
C292        C627   1.419       .  A
C293        C294   1.395       .  A
C293        H300   1.082   1_556  S
C294        S296   1.802       .  S
S295        H298   1.408       .  S
S296        H297   1.406       .  S
C301        C306   1.412       .  A
C301        C638   1.406       .  A
C302        C303   1.401       .  A
C302        C637   1.406       .  A
C302        H311   1.084       .  S
C303        C640   1.411       .  A
C303        S307   1.802       .  S
C304        C305   1.406       .  A
C304        C639   1.411       .  A
C304        N346   1.442       .  S
C305        C306   1.402       .  A
C305        H312   1.083       .  S
C306        S308   1.802       .  S
S307        H310   1.407       .  S
S308        H309   1.407       .  S
C313        C314   1.405       .  A
C313        C318   1.404       .  A
C314        C315   1.364       .  A
C314        H323   1.085       .  S
C315        C316   1.410       .  A
C315        S319   1.814       .  S
C316        C317   1.402       .  A
C317        C318   1.382       .  A
C317        H324   1.081       .  S
C318        S320   1.801       .  S
S319        H322   1.394       .  S
S320        H321   1.405       .  S
C325        C326   1.383       .  A
C325        C330   1.387       .  A
C326        C327   1.375       .  A
C326        H335   1.085       .  S
C327        C328   1.433       .  A
C327        S331   1.812       .  S
C328        C329   1.410       .  A
C329        C330   1.380       .  A
C329        H336   1.080       .  S
C330        S332   1.805       .  S
S331        H334   1.397       .  S
S332        H333   1.407       .  S
C337        C339   1.550       .  S
C337        C341   1.552       .  S
C337        C340   1.509       .  S
C337        C661   1.479       .  S
C338        C342   1.545       .  S
C338        C344   1.521       .  S
C338        C343   1.546       .  S
C338        C649   1.474       .  S
C339        C347   1.380       .  A
C340        C351   1.368       .  A
C341        C355   1.397       .  A
C342        C345   1.386       .  A
C343        C349   1.390       .  A
C344        C352   1.371       .  A
C345        N346   1.361   1_556  A
C345        H358   1.079       .  S
C347        H348   1.081       .  S
C349        H359   1.082       .  S
N350        C351   1.350       .  A
N350        C625   1.429       .  S
C351        H357   1.083       .  S
C352        N353   1.349   1_556  A
C352        H354   1.084       .  S
N353        C616   1.440       .  S
C355        H356   1.080       .  S
C360        C362   1.538       .  S
C360        C364   1.523       .  S
C360        C363   1.536       .  S
C360        C652   1.466       .  S
C361        C365   1.555       .  S
C361        C367   1.533       .  S
C361        C366   1.526       .  S
C361        C664   1.468       .  S
C362        C370   1.368       .  A
C362        C365   1.388       .  A
C363        C374   1.395       .  A
C363        C366   1.363       .  A
C364        C378   1.371       .  A
C364        C367   1.373       .  A
C365        C368   1.392       .  A
C366        C372   1.370       .  A
C367        C375   1.388       .  A
C368        N369   1.365       .  A
C368        H381   1.082       .  S
N369        C370   1.355       .  A
N369        C601   1.447       .  S
C370        H371   1.080       .  S
C372        N373   1.351       .  A
C372        H382   1.082       .  S
N373        C374   1.365       .  A
N373        C589   1.446       .  S
C374        H380   1.082       .  S
C375        N376   1.360       .  A
C375        H377   1.083       .  S
N376        C378   1.351       .  A
N376        C577   1.433       .  S
C378        H379   1.083       .  S
C383        O385   1.265       .  A
C383        C637   1.480       .  S
Tb384       O742   2.361       .  S
Tb384      O1079   2.334   1_545  S
Tb384      O1062   2.401   1_545  S
Tb384       O395   2.512       .  S
Tb384       O388   2.383       .  S
Tb384      O1752   2.342       .  S
Tb384       O405   2.348       .  S
O385       Tb389   2.377       .  S
O386        C397   1.260       .  A
O386      Tb1061   2.363       .  S
C387        O392   1.258       .  A
C387        O408   1.256       .  A
C387        C544   1.471       .  S
Tb389      O1058   2.363   1_545  S
Tb389       O392   2.335       .  S
Tb389      O1071   2.375   1_545  S
Tb389       O401   2.551       .  S
Tb389      O1063   2.336   1_445  S
O390       C1068   1.262       .  A
O390      Tb1056   2.401       .  S
O391       C1738   1.265       .  A
O391      Tb1061   2.336   1_655  S
O393        C403   1.303       .  A
C394       O1735   1.265       .  A
C394        O407   1.259       .  A
C394        C628   1.485       .  S
O395       C1746   1.305       .  A
C396       O1062   1.262       .  A
C396        O405   1.248   1_565  A
C396       C1225   1.480       .  S
C397        O399   1.259       .  A
C397        C565   1.484       .  S
O399      Tb1061   2.375       .  S
O400       C1747   1.313       .  A
O401        C402   1.311       .  A
C402       O1739   1.305   1_455  A
C402        C429   1.648       .  S
C403       O1744   1.313   1_455  A
C403        C428   1.646       .  S
C404       O1078   1.260       .  A
C404        C613   1.489       .  S
O406       C1076   1.260       .  A
O406       Tb720   2.361       .  S
O407      Tb1056   2.334       .  S
O408      Tb1728   2.342   1_455  S
C409        O424   1.264       .  A
C409        O411   1.261       .  A
C409        C604   1.483       .  S
Tb410      O1104   2.374       .  S
Tb410      O1105   2.329   1_545  S
Tb410      O1088   2.341   1_545  S
Tb410       O426   2.484       .  S
Tb410       O421   2.566       .  S
Tb410       O414   2.353       .  S
Tb410      O1778   2.339       .  S
Tb410       O431   2.361       .  S
O411       Tb415   2.341       .  S
O412        C423   1.256       .  A
O412      Tb1087   2.354       .  S
C413        O418   1.263       .  A
C413        O434   1.262       .  A
C413        C508   1.484       .  S
O414        C430   1.259       .  A
Tb415      O1084   2.354       .  S
Tb415       O419   2.568       .  S
Tb415       O424   2.380       .  S
Tb415       O418   2.336       .  S
Tb415      O1097   2.375   1_545  S
Tb415       O427   2.481       .  S
Tb415      O1089   2.342   1_445  S
O416       C1094   1.260       .  A
O416      Tb1082   2.341       .  S
O417       C1764   1.258       .  A
O417      Tb1087   2.342   1_655  S
O419        C429   1.314       .  A
C420       O1761   1.258       .  A
C420        O433   1.258       .  A
C420        C592   1.494       .  S
O421       C1772   1.313       .  A
C422       O1088   1.260       .  A
C422        O431   1.262   1_565  A
C422       C1189   1.483       .  S
C423        O425   1.264       .  A
C423        C532   1.472       .  S
O425      Tb1087   2.375       .  S
O426       C1773   1.297       .  A
O427        C428   1.296       .  A
C428       O1765   1.313   1_455  A
C429       O1770   1.297   1_455  A
C430       O1104   1.257       .  A
C430        C580   1.475       .  S
O432       C1102   1.257       .  A
O432      Tb1082   2.374       .  S
O433      Tb1082   2.329       .  S
O434      Tb1754   2.339   1_455  S
C435        C437   1.555       .  S
C435        C439   1.541       .  S
C435        C438   1.511       .  S
C436        C440   1.511       .  S
C436        C442   1.550       .  S
C436        C441   1.559       .  S
C436        C496   1.462       .  S
C437        C445   1.398       .  A
C437        C440   1.363       .  A
C438        C449   1.362       .  A
C438        C441   1.363       .  A
C439        C453   1.381       .  A
C439        C442   1.391       .  A
C440        C443   1.372       .  A
C441        C447   1.404       .  A
C442        C450   1.384       .  A
C443        N444   1.351       .  A
C443        H456   1.083       .  S
N444        C445   1.363       .  A
N444        C568   1.444       .  S
C445        H446   1.081       .  S
C447        N448   1.369       .  A
C447        H457   1.082       .  S
N448        C449   1.346       .  A
N448        C541   1.447       .  S
C449        H455   1.083       .  S
C450        N451   1.356       .  A
C450        H452   1.082       .  S
N451        C453   1.358       .  A
N451        C556   1.441       .  S
C453        H454   1.079       .  S
C458        C460   1.518       .  S
C458        C462   1.553       .  S
C458        C461   1.527       .  S
C458        C493   1.458       .  S
C459        C463   1.542       .  S
C459        C465   1.534       .  S
C459        C464   1.525       .  S
C459        C484   1.451       .  S
C460        C468   1.361       .  A
C460        C463   1.364       .  A
C461        C472   1.387       .  A
C461        C464   1.367       .  A
C462        C476   1.385       .  A
C462        C465   1.387       .  A
C463        C466   1.401       .  A
C464        C470   1.368       .  A
C465        C473   1.375       .  A
C466        N467   1.367       .  A
C466        H479   1.082       .  S
N467        C468   1.349       .  A
N467        C529   1.446       .  S
C468        H469   1.083       .  S
C470        N471   1.348       .  A
C470        H480   1.082       .  S
N471        C472   1.360       .  A
N471        C505   1.428       .  S
C472        H478   1.082       .  S
C473        N474   1.350       .  A
C473        H475   1.082       .  S
N474        C476   1.359       .  A
N474        C520   1.433       .  S
C476        H477   1.083       .  S
C481        C482   1.401       .  A
C481        C486   1.394       .  A
C482        C483   1.364       .  A
C482        H491   1.085       .  S
C483        C484   1.413       .  A
C483        S487   1.812       .  S
C484        C485   1.406       .  A
C485        C486   1.374       .  A
C485        H492   1.082       .  S
C486        S488   1.800       .  S
S487        H490   1.398       .  S
C493        C494   1.406       .  A
C493        C498   1.427       .  A
C494        C495   1.370       .  A
C494        H503   1.079       .  S
C495        C496   1.395       .  A
C495        S499   1.806       .  S
C496        C497   1.388       .  A
C497        C498   1.370       .  A
C497        H504   1.084       .  S
C498        S500   1.819       .  S
S499        H502   1.403       .  S
S500        H501   1.394       .  S
C505        C506   1.398       .  A
C505        C510   1.407       .  A
C506        C507   1.397       .  A
C506        H515   1.084       .  S
C507        C508   1.415       .  A
C507        S511   1.798       .  S
C508        C509   1.407       .  A
C509        C510   1.401       .  A
C509        H516   1.081       .  S
C510        S512   1.802       .  S
S511        H514   1.407       .  S
S512        H513   1.407       .  S
C517        C518   1.408       .  A
C517        C522   1.417       .  A
C517       C1094   1.483       .  S
C518        C519   1.397       .  A
C518        H527   1.083       .  S
C519        C520   1.408       .  A
C519        S523   1.802       .  S
C520        C521   1.401       .  A
C521        C522   1.399       .  A
C521        H528   1.083       .  S
C522       S1196   1.801       .  S
S523        H526   1.407       .  S
S524       C1194   1.801   1_545  S
S524        H525   1.408   1_545  S
C529        C530   1.407       .  A
C529        C534   1.416       .  A
C530        C531   1.390       .  A
C530        H539   1.084       .  S
C531        C532   1.406       .  A
C531        S535   1.803       .  S
C532        C533   1.408       .  A
C533        C534   1.411       .  A
C533        H540   1.085       .  S
C534        S536   1.799       .  S
S535        H538   1.403       .  S
S536        H537   1.406       .  S
C541        C542   1.409       .  A
C541        C546   1.415       .  A
C542        C543   1.392       .  A
C543        C544   1.407       .  A
C544        C545   1.407       .  A
C545        C546   1.408       .  A
C545        H552   1.084       .  S
C546        S548   1.799       .  S
S547        H550   1.401       .  S
S548        H549   1.407       .  S
C553        C554   1.402       .  A
C553        C558   1.417       .  A
C553       C1068   1.480       .  S
C554        C555   1.407       .  A
C554        H563   1.083       .  S
C555        C556   1.413       .  A
C556        C557   1.401       .  A
C557        C558   1.400       .  A
C557        H564   1.085       .  S
C558       S1232   1.804       .  S
S560       C1230   1.804   1_545  S
S560        H561   1.408       .  S
C565        C566   1.401       .  A
C565        C570   1.417       .  A
C566        C567   1.399       .  A
C566        H575   1.084       .  S
C567        C568   1.416       .  A
C567        S571   1.803       .  S
C568        C569   1.403       .  A
C569        C570   1.407       .  A
C569        H576   1.084       .  S
C570       S1244   1.799       .  S
S571        H574   1.407       .  S
S572       C1242   1.799       .  S
S572        H573   1.406       .  S
C577        C578   1.403       .  A
C577        C582   1.410       .  A
C578        C579   1.405       .  A
C578        H587   1.082       .  S
C579        C580   1.412       .  A
C579        S583   1.805   1_545  S
C580        C581   1.400       .  A
C581        C582   1.397       .  A
C581        H588   1.083       .  S
C582        S584   1.798       .  S
S583        H586   1.407       .  S
S584        H585   1.405       .  S
C589        C590   1.406       .  A
C589        C594   1.413       .  A
C590        C591   1.396       .  A
C590        H599   1.084       .  S
C591        C592   1.418       .  A
C591        S595   1.803       .  S
C592        C593   1.412       .  A
C593        C594   1.404       .  A
C593        H600   1.084       .  S
C594        S596   1.799       .  S
S595        H598   1.408       .  S
S596        H597   1.406       .  S
C601        C602   1.408       .  A
C601        C606   1.416       .  A
C602        C603   1.411       .  A
C602        H611   1.083       .  S
C603        C604   1.419       .  A
C603        S607   1.804       .  S
C604        C605   1.401       .  A
C605        C606   1.390       .  A
C605        H612   1.085       .  S
C606        S608   1.806       .  S
S607        H610   1.399       .  S
S608        H609   1.408       .  S
C613        C614   1.406       .  A
C613        C618   1.419       .  A
C614        C615   1.396       .  A
C614        H623   1.084   1_554  S
C615        C616   1.412       .  A
C615        S619   1.804   1_554  S
C617        H624   1.084       .  S
S619        H622   1.407   1_556  S
S620        H621   1.401       .  S
C625        C630   1.407       .  A
C626        C627   1.401       .  A
C626        H635   1.083       .  S
C627        S631   1.800       .  S
C628        C629   1.406       .  A
C629        C630   1.395       .  A
C629        H636   1.082       .  S
C630        S632   1.802       .  S
S631        H634   1.408       .  S
S632        H633   1.406       .  S
C637        C642   1.412       .  A
C638        C639   1.401       .  A
C638        H647   1.084   1_554  S
C639        S643   1.802   1_554  S
C640        C641   1.406       .  A
C641        C642   1.402       .  A
C641        H648   1.083       .  S
C642        S644   1.802       .  S
S643        H646   1.407       .  S
S644        H645   1.407       .  S
C649        C650   1.405       .  A
C649        C654   1.404       .  A
C650        C651   1.364       .  A
C650        H659   1.085       .  S
C651        C652   1.410       .  A
C651        S655   1.814       .  S
C652        C653   1.402       .  A
C653        C654   1.382       .  A
C653        H660   1.081       .  S
C654        S656   1.801       .  S
S655        H658   1.394       .  S
S656        H657   1.405       .  S
C661        C662   1.383       .  A
C661        C666   1.387       .  A
C662        C663   1.375       .  A
C662        H671   1.085       .  S
C663        C664   1.433       .  A
C663        S667   1.812       .  S
C664        C665   1.410       .  A
C665        C666   1.380       .  A
C665        H672   1.080       .  S
C666        S668   1.805       .  S
S667        H670   1.397       .  S
S668        H669   1.407       .  S
C673        C675   1.550       .  S
C673        C677   1.552       .  S
C673        C676   1.509       .  S
C673        C997   1.479       .  S
C674        C678   1.545       .  S
C674        C680   1.521       .  S
C674        C679   1.546       .  S
C674        C985   1.474       .  S
C675        C683   1.380       .  A
C675       C1014   1.393   1_554  A
C676        C687   1.368       .  A
C676       C1015   1.370   1_554  A
C677        C691   1.396       .  A
C677       C1016   1.369   1_554  A
C678       C1011   1.393       .  A
C678        C681   1.386       .  A
C679       C1012   1.370       .  A
C679        C685   1.390       .  A
C680       C1013   1.369       .  A
C680        C688   1.371       .  A
C681        N682   1.361       .  A
C681        H694   1.079       .  S
N682       C1019   1.352       .  A
N682       C1312   1.442       .  S
C683       N1018   1.352       .  A
C683        H684   1.081       .  S
C685       N1022   1.357       .  A
C685        H695   1.082       .  S
N686       C1021   1.357       .  A
N686        C687   1.350   1_556  A
N686        C961   1.429       .  S
C687        H693   1.083       .  S
C688        N689   1.349       .  A
C688        H690   1.084       .  S
N689       C1027   1.361       .  A
N689        C952   1.440       .  S
C691       N1025   1.361       .  A
C691        H692   1.080       .  S
C696        C698   1.538       .  S
C696        C700   1.523       .  S
C696        C699   1.536       .  S
C696        C988   1.466       .  S
C697        C701   1.555       .  S
C697        C703   1.533       .  S
C697        C702   1.526       .  S
C697       C1000   1.468       .  S
C698        C706   1.368       .  A
C698        C701   1.388       .  A
C699        C710   1.395       .  A
C699        C702   1.363       .  A
C700        C714   1.371       .  A
C700        C703   1.373       .  A
C701        C704   1.392       .  A
C702        C708   1.369       .  A
C703        C711   1.388       .  A
C704        N705   1.365       .  A
C704        H717   1.082       .  S
N705        C706   1.355       .  A
N705        C937   1.447       .  S
C706        H707   1.080       .  S
C708        N709   1.351       .  A
C708        H718   1.082       .  S
N709        C710   1.365       .  A
N709        C925   1.446       .  S
C710        H716   1.082       .  S
C711        N712   1.360       .  A
C711        H713   1.083       .  S
N712        C714   1.351       .  A
N712        C913   1.433       .  S
C714        H715   1.083       .  S
C719       O1070   1.256       .  A
C719        O721   1.265       .  A
C719        C973   1.480       .  S
Tb720      O1072   2.560   1_554  S
Tb720       O731   2.512       .  S
Tb720       O724   2.383       .  S
Tb720      O2088   2.342       .  S
Tb720       O741   2.348       .  S
O721       Tb725   2.377       .  S
O722        C733   1.260       .  A
C723        O728   1.258       .  A
C723        O744   1.256       .  A
C723        C880   1.471       .  S
O724       C1076   1.258       .  A
Tb725      O1065   2.507   1_554  S
Tb725      O1070   2.342       .  S
Tb725       O728   2.335       .  S
Tb725       O737   2.551       .  S
O727       C2074   1.265       .  A
O729        C739   1.303       .  A
O729      Tb1061   2.507       .  S
C730       O2071   1.265       .  A
C730        O743   1.259   1_554  A
C730        C964   1.485   1_554  S
O731       C2082   1.305       .  A
C732        O741   1.248       .  A
C733        O735   1.259   1_554  A
C733        C901   1.484       .  S
O734       C1055   1.256       .  A
O734      Tb1061   2.342       .  S
O736       C2083   1.313       .  A
O736      Tb1056   2.560       .  S
O737        C738   1.311       .  A
C738       O2075   1.305   1_455  A
C738        C765   1.648       .  S
C739       O2080   1.313   1_455  A
C739        C764   1.646       .  S
C740       O1060   1.258       .  A
C740        C949   1.489       .  S
O744      Tb2064   2.342   1_455  S
C745        O760   1.264       .  A
C745        O747   1.261       .  A
C745        C940   1.483       .  S
Tb746       O762   2.484       .  S
Tb746       O757   2.566       .  S
Tb746       O750   2.353       .  S
Tb746      O2114   2.339       .  S
Tb746       O767   2.361       .  S
O747       Tb751   2.341       .  S
O748        C759   1.256   1_545  A
C749        O754   1.263       .  A
C749        O770   1.262       .  A
C749        C844   1.484       .  S
O750        C766   1.259       .  A
Tb751       O755   2.568       .  S
Tb751       O760   2.380       .  S
Tb751       O754   2.336       .  S
Tb751       O763   2.481       .  S
O753       C2100   1.258       .  A
O755        C765   1.314       .  A
C756       O2097   1.258       .  A
C756        O769   1.258       .  A
C756        C928   1.494       .  S
O757       C2108   1.313       .  A
C758        O767   1.262       .  A
C759        O761   1.264       .  A
C759        C868   1.472       .  S
O762       C2109   1.297       .  A
O763        C764   1.296       .  A
C764       O2101   1.313   1_455  A
C765       O2106   1.297   1_455  A
C766        C916   1.475       .  S
O770      Tb2090   2.339   1_455  S
C771        C773   1.555       .  S
C771        C775   1.541       .  S
C771        C774   1.511       .  S
C771       C1153   1.463   1_554  S
C772        C776   1.511       .  S
C772        C778   1.550       .  S
C772        C777   1.559       .  S
C772        C832   1.462       .  S
C773        C781   1.398       .  A
C773        C776   1.363       .  A
C774        C785   1.362       .  A
C774        C777   1.363       .  A
C775        C789   1.381       .  A
C775        C778   1.391       .  A
C776        C779   1.372       .  A
C777        C783   1.404       .  A
C778        C786   1.384       .  A
C779        N780   1.351       .  A
C779        H792   1.083       .  S
N780        C781   1.363       .  A
N780        C904   1.444       .  S
C781        H782   1.081   1_554  S
C783        N784   1.369       .  A
C783        H793   1.082       .  S
N784        C785   1.346       .  A
N784        C877   1.447       .  S
C785        H791   1.083       .  S
C786        N787   1.356       .  A
C786        H788   1.082       .  S
N787        C789   1.358       .  A
N787        C892   1.441       .  S
C789        H790   1.079       .  S
C794        C796   1.518       .  S
C794        C798   1.553       .  S
C794        C797   1.527       .  S
C794        C829   1.458       .  S
C795        C799   1.542       .  S
C795        C801   1.534       .  S
C795        C800   1.525       .  S
C795        C820   1.451       .  S
C796        C804   1.361       .  A
C796        C799   1.364       .  A
C797        C808   1.387       .  A
C797        C800   1.367       .  A
C798        C812   1.385       .  A
C798        C801   1.387       .  A
C799        C802   1.401       .  A
C800        C806   1.368       .  A
C801        C809   1.375       .  A
C802        N803   1.367       .  A
C802        H815   1.082       .  S
N803        C804   1.349       .  A
N803        C865   1.446       .  S
C804        H805   1.083       .  S
C806        N807   1.348       .  A
C806        H816   1.082       .  S
N807        C808   1.360       .  A
N807        C841   1.428       .  S
C808        H814   1.082       .  S
C809        N810   1.350       .  A
C809        H811   1.082       .  S
N810        C812   1.359       .  A
N810        C856   1.433       .  S
C812        H813   1.083       .  S
C817       C1107   1.463       .  S
C817        C818   1.401       .  A
C817        C822   1.394       .  A
C818        C819   1.364       .  A
C818        H827   1.085       .  S
C819        C820   1.413       .  A
C819        S823   1.812       .  S
C820        C821   1.406       .  A
C821        C822   1.374       .  A
C821        H828   1.082       .  S
C822        S824   1.800       .  S
S823        H826   1.398       .  S
S824       H1161   1.405       .  S
H825       S1160   1.405   1_554  S
C829        C830   1.406       .  A
C829        C834   1.427       .  A
C830        C831   1.370       .  A
C830        H839   1.079       .  S
C831        C832   1.395       .  A
C831        S835   1.806       .  S
C832        C833   1.388       .  A
C833        C834   1.370       .  A
C833        H840   1.084       .  S
C834        S836   1.819       .  S
S835        H838   1.403       .  S
S836        H837   1.394       .  S
C841        C842   1.398       .  A
C841        C846   1.407       .  A
C842        C843   1.397       .  A
C842        H851   1.084       .  S
C843        C844   1.415       .  A
C843        S847   1.798       .  S
C844        C845   1.407       .  A
C845        C846   1.401       .  A
C845        H852   1.081       .  S
C846        S848   1.802       .  S
S847        H850   1.407       .  S
S848        H849   1.407       .  S
C853        C854   1.408       .  A
C853        C858   1.417       .  A
C854        C855   1.397       .  A
C854        H863   1.083       .  S
C855        C856   1.408       .  A
C855        S859   1.802       .  S
C856        C857   1.401       .  A
C857        C858   1.399       .  A
C857        H864   1.083       .  S
S859        H862   1.407       .  S
S860        H861   1.408       .  S
C865        C866   1.407       .  A
C865        C870   1.416       .  A
C866        C867   1.390       .  A
C866        H875   1.084       .  S
C867        C868   1.406       .  A
C867        S871   1.803       .  S
C868        C869   1.408       .  A
C869        C870   1.411       .  A
C869        H876   1.085       .  S
C870        S872   1.799       .  S
S871        H874   1.403       .  S
S872        H873   1.406       .  S
C877        C878   1.409       .  A
C877        C882   1.415       .  A
C878        C879   1.392       .  A
C878       H1223   1.083       .  S
C879        C880   1.407       .  A
C879       S1219   1.808   1_554  S
C880        C881   1.407       .  A
C881        C882   1.408       .  A
C881        H888   1.084       .  S
C882        S884   1.799       .  S
S883       C1215   1.808       .  S
S883        H886   1.401       .  S
S884        H885   1.407       .  S
H887       C1214   1.083       .  S
C889        C890   1.402       .  A
C889        C894   1.417       .  A
C890        C891   1.407       .  A
C890        H899   1.083       .  S
C891        C892   1.413       .  A
C891       S1231   1.803       .  S
C892        C893   1.401       .  A
C893        C894   1.400       .  A
C893        H900   1.085       .  S
S895       C1227   1.803       .  S
S895       H1234   1.407       .  S
S896        H897   1.408       .  S
H898       S1231   1.407       .  S
C901        C902   1.401       .  A
C901        C906   1.417   1_554  A
C902        C903   1.399       .  A
C902        H911   1.084       .  S
C903        C904   1.416       .  A
C903        S907   1.803       .  S
C904        C905   1.403   1_554  A
C905        C906   1.407       .  A
C905        H912   1.084       .  S
S907        H910   1.407       .  S
S908        H909   1.406       .  S
C913        C914   1.403       .  A
C913        C918   1.410       .  A
C914        C915   1.405       .  A
C914        H923   1.082       .  S
C915        C916   1.412       .  A
C915        S919   1.805       .  S
C916        C917   1.400       .  A
C917        C918   1.397       .  A
C917        H924   1.083       .  S
C918        S920   1.798       .  S
S919        H922   1.407       .  S
S920        H921   1.405       .  S
C925        C926   1.406       .  A
C925        C930   1.413       .  A
C926        C927   1.396       .  A
C926        H935   1.084       .  S
C927        C928   1.418       .  A
C927        S931   1.803       .  S
C928        C929   1.412       .  A
C929        C930   1.404       .  A
C929        H936   1.084       .  S
C930        S932   1.799       .  S
S931        H934   1.408       .  S
S932        H933   1.406       .  S
C937        C938   1.408       .  A
C937        C942   1.416       .  A
C938        C939   1.411       .  A
C938        H947   1.083       .  S
C939        C940   1.419       .  A
C939        S943   1.804       .  S
C940        C941   1.401       .  A
C941        C942   1.390       .  A
C941        H948   1.085       .  S
C942        S944   1.806       .  S
S943        H946   1.399       .  S
S944        H945   1.408       .  S
C949        C950   1.406       .  A
C949        C954   1.419       .  A
C950        C951   1.396       .  A
C950        H959   1.084       .  S
C951        C952   1.412       .  A
C951        S955   1.804       .  S
C952       C1289   1.402       .  A
C953       C1288   1.402       .  A
C953       C1290   1.405       .  A
C953        H960   1.084       .  S
C954       C1289   1.405       .  A
C954       S1292   1.797       .  S
S955        H958   1.407       .  S
S956       C1290   1.797       .  S
S956        H957   1.401       .  S
C961       C1298   1.399       .  A
C961        C966   1.407       .  A
C962       C1297   1.399       .  A
C962        C963   1.401       .  A
C962        H971   1.083       .  S
C963       C1300   1.419       .  A
C963        S967   1.800       .  S
C964       C1299   1.419       .  A
C964        C965   1.406       .  A
C965        C966   1.395       .  A
C965        H972   1.083   1_556  S
C966        S968   1.802       .  S
S967        H970   1.408       .  S
S968        H969   1.406       .  S
C973       C1310   1.406       .  A
C973        C978   1.412       .  A
C974       C1309   1.406       .  A
C974        C975   1.401       .  A
C974        H983   1.084       .  S
C975       C1312   1.411       .  A
C975        S979   1.802       .  S
C976       C1311   1.411       .  A
C976        C977   1.406       .  A
C976       N1018   1.442       .  S
C977        C978   1.402       .  A
C977        H984   1.083       .  S
C978        S980   1.802       .  S
S979        H982   1.407       .  S
S980        H981   1.407       .  S
C985        C986   1.405       .  A
C985        C990   1.404       .  A
C986        C987   1.364       .  A
C986        H995   1.085       .  S
C987        C988   1.410       .  A
C987        S991   1.814       .  S
C988        C989   1.402       .  A
C989        C990   1.382       .  A
C989        H996   1.081       .  S
C990        S992   1.801       .  S
S991        H994   1.394       .  S
S992        H993   1.405       .  S
C997        C998   1.383       .  A
C997       C1002   1.387       .  A
C998        C999   1.375       .  A
C998       H1007   1.085       .  S
C999       C1000   1.433       .  A
C999       S1003   1.812       .  S
C1000      C1001   1.410       .  A
C1001      C1002   1.380       .  A
C1001      H1008   1.080       .  S
C1002      S1004   1.805       .  S
S1003      H1006   1.397       .  S
S1004      H1005   1.407       .  S
C1009      C1011   1.550       .  S
C1009      C1013   1.552       .  S
C1009      C1012   1.509       .  S
C1009      C1333   1.479       .  S
C1010      C1014   1.545       .  S
C1010      C1016   1.521       .  S
C1010      C1015   1.546       .  S
C1010      C1321   1.474       .  S
C1011      C1019   1.380       .  A
C1012      C1023   1.368       .  A
C1013      C1027   1.397       .  A
C1014      C1017   1.386       .  A
C1015      C1021   1.390       .  A
C1016      C1024   1.371       .  A
C1017      N1018   1.361   1_556  A
C1017      H1030   1.079       .  S
C1019      H1020   1.081       .  S
C1021      H1031   1.082       .  S
N1022      C1023   1.350       .  A
N1022      C1297   1.429       .  S
C1023      H1029   1.083       .  S
C1024      N1025   1.349   1_556  A
C1024      H1026   1.084       .  S
N1025      C1288   1.440       .  S
C1027      H1028   1.080       .  S
C1032      C1034   1.538       .  S
C1032      C1036   1.523       .  S
C1032      C1035   1.536       .  S
C1032      C1324   1.466       .  S
C1033      C1037   1.555       .  S
C1033      C1039   1.533       .  S
C1033      C1038   1.526       .  S
C1033      C1336   1.468       .  S
C1034      C1042   1.368       .  A
C1034      C1037   1.388       .  A
C1035      C1046   1.395       .  A
C1035      C1038   1.363       .  A
C1036      C1050   1.371       .  A
C1036      C1039   1.373       .  A
C1037      C1040   1.392       .  A
C1038      C1044   1.370       .  A
C1039      C1047   1.388       .  A
C1040      N1041   1.365       .  A
C1040      H1053   1.082       .  S
N1041      C1042   1.355       .  A
N1041      C1273   1.447       .  S
C1042      H1043   1.080       .  S
C1044      N1045   1.351       .  A
C1044      H1054   1.082       .  S
N1045      C1046   1.365       .  A
N1045      C1261   1.446       .  S
C1046      H1052   1.082       .  S
C1047      N1048   1.360       .  A
C1047      H1049   1.083       .  S
N1048      C1050   1.351       .  A
N1048      C1249   1.433       .  S
C1050      H1051   1.083       .  S
C1055      O1057   1.265       .  A
C1055      C1309   1.480       .  S
Tb1056     O1067   2.512       .  S
Tb1056     O1060   2.383       .  S
Tb1056     O2424   2.342       .  S
Tb1056     O1077   2.348       .  S
O1057     Tb1061   2.377       .  S
O1058      C1069   1.260       .  A
C1059      O1064   1.258       .  A
C1059      O1080   1.256       .  A
C1059      C1216   1.471       .  S
Tb1061     O1064   2.335       .  S
Tb1061     O1073   2.551       .  S
O1063      C2410   1.265       .  A
O1065      C1075   1.303       .  A
C1066      O2407   1.265       .  A
C1066      O1079   1.259       .  A
C1066      C1300   1.485       .  S
O1067      C2418   1.305       .  A
C1068      O1077   1.248       .  A
C1069      O1071   1.259       .  A
C1069      C1237   1.484       .  S
O1072      C2419   1.313       .  A
O1073      C1074   1.311       .  A
C1074      O2411   1.305   1_455  A
C1074      C1101   1.648       .  S
C1075      O2416   1.313   1_455  A
C1075      C1100   1.646       .  S
C1076      C1285   1.489       .  S
O1080     Tb2400   2.342   1_455  S
C1081      O1096   1.264       .  A
C1081      O1083   1.261       .  A
C1081      C1276   1.483       .  S
Tb1082     O1098   2.484       .  S
Tb1082     O1093   2.566       .  S
Tb1082     O1086   2.353       .  S
Tb1082     O2450   2.339       .  S
Tb1082     O1103   2.361       .  S
O1083     Tb1087   2.341       .  S
O1084      C1095   1.256   1_545  A
C1085      O1090   1.263       .  A
C1085      O1106   1.262       .  A
C1085      C1180   1.484       .  S
O1086      C1102   1.259       .  A
Tb1087     O1091   2.568       .  S
Tb1087     O1096   2.380       .  S
Tb1087     O1090   2.336       .  S
Tb1087     O1099   2.481       .  S
O1089      C2436   1.258       .  A
O1091      C1101   1.314       .  A
C1092      O2433   1.258       .  A
C1092      O1105   1.258       .  A
C1092      C1264   1.494       .  S
O1093      C2444   1.313       .  A
C1094      O1103   1.262       .  A
C1095      O1097   1.264       .  A
C1095      C1204   1.472       .  S
O1098      C2445   1.297       .  A
O1099      C1100   1.296       .  A
C1100      O2437   1.313   1_455  A
C1101      O2442   1.297   1_455  A
C1102      C1252   1.475       .  S
O1106     Tb2426   2.339   1_455  S
C1107      C1109   1.555       .  S
C1107      C1111   1.541       .  S
C1107      C1110   1.511       .  S
C1108      C1112   1.511       .  S
C1108      C1114   1.550       .  S
C1108      C1113   1.559       .  S
C1108      C1168   1.462       .  S
C1109      C1117   1.398       .  A
C1109      C1112   1.363       .  A
C1110      C1121   1.362       .  A
C1110      C1113   1.363       .  A
C1111      C1125   1.381       .  A
C1111      C1114   1.391       .  A
C1112      C1115   1.372       .  A
C1113      C1119   1.404       .  A
C1114      C1122   1.384       .  A
C1115      N1116   1.351       .  A
C1115      H1128   1.083       .  S
N1116      C1117   1.363       .  A
N1116      C1240   1.444       .  S
C1117      H1118   1.081       .  S
C1119      N1120   1.369       .  A
C1119      H1129   1.082       .  S
N1120      C1121   1.346       .  A
N1120      C1213   1.447       .  S
C1121      H1127   1.083       .  S
C1122      N1123   1.356       .  A
C1122      H1124   1.082       .  S
N1123      C1125   1.358       .  A
N1123      C1228   1.441       .  S
C1125      H1126   1.079       .  S
C1130      C1132   1.518       .  S
C1130      C1134   1.553       .  S
C1130      C1133   1.527       .  S
C1130      C1165   1.458       .  S
C1131      C1135   1.542       .  S
C1131      C1137   1.534       .  S
C1131      C1136   1.525       .  S
C1131      C1156   1.451       .  S
C1132      C1140   1.361       .  A
C1132      C1135   1.364       .  A
C1133      C1144   1.387       .  A
C1133      C1136   1.367       .  A
C1134      C1148   1.385       .  A
C1134      C1137   1.387       .  A
C1135      C1138   1.401       .  A
C1136      C1142   1.368       .  A
C1137      C1145   1.375       .  A
C1138      N1139   1.367       .  A
C1138      H1151   1.082       .  S
N1139      C1140   1.349       .  A
N1139      C1201   1.446       .  S
C1140      H1141   1.083       .  S
C1142      N1143   1.348       .  A
C1142      H1152   1.082       .  S
N1143      C1144   1.360       .  A
N1143      C1177   1.428       .  S
C1144      H1150   1.082       .  S
C1145      N1146   1.350       .  A
C1145      H1147   1.082       .  S
N1146      C1148   1.359       .  A
N1146      C1192   1.433       .  S
C1148      H1149   1.083       .  S
C1153      C1154   1.401       .  A
C1153      C1158   1.394       .  A
C1154      C1155   1.364       .  A
C1154      H1163   1.085       .  S
C1155      C1156   1.413       .  A
C1155      S1159   1.812       .  S
C1156      C1157   1.406       .  A
C1157      C1158   1.374       .  A
C1157      H1164   1.082       .  S
C1158      S1160   1.800       .  S
S1159      H1162   1.398       .  S
C1165      C1166   1.406       .  A
C1165      C1170   1.427       .  A
C1166      C1167   1.370       .  A
C1166      H1175   1.079       .  S
C1167      C1168   1.395       .  A
C1167      S1171   1.806       .  S
C1168      C1169   1.388       .  A
C1169      C1170   1.370       .  A
C1169      H1176   1.084       .  S
C1170      S1172   1.819       .  S
S1171      H1174   1.403       .  S
S1172      H1173   1.394       .  S
C1177      C1178   1.398       .  A
C1177      C1182   1.407       .  A
C1178      C1179   1.397       .  A
C1178      H1187   1.084       .  S
C1179      C1180   1.415       .  A
C1179      S1183   1.798       .  S
C1180      C1181   1.407       .  A
C1181      C1182   1.401       .  A
C1181      H1188   1.081       .  S
C1182      S1184   1.802       .  S
S1183      H1186   1.407       .  S
S1184      H1185   1.407       .  S
C1189      C1190   1.408       .  A
C1189      C1194   1.417       .  A
C1190      C1191   1.397       .  A
C1190      H1199   1.083       .  S
C1191      C1192   1.408       .  A
C1191      S1195   1.802       .  S
C1192      C1193   1.401       .  A
C1193      C1194   1.399       .  A
C1193      H1200   1.083       .  S
S1195      H1198   1.407       .  S
S1196      H1197   1.408       .  S
C1201      C1202   1.407       .  A
C1201      C1206   1.416       .  A
C1202      C1203   1.390       .  A
C1202      H1211   1.084       .  S
C1203      C1204   1.406       .  A
C1203      S1207   1.803       .  S
C1204      C1205   1.408       .  A
C1205      C1206   1.411       .  A
C1205      H1212   1.085       .  S
C1206      S1208   1.799       .  S
S1207      H1210   1.403       .  S
S1208      H1209   1.406       .  S
C1213      C1214   1.409       .  A
C1213      C1218   1.415       .  A
C1214      C1215   1.392       .  A
C1215      C1216   1.407       .  A
C1216      C1217   1.407       .  A
C1217      C1218   1.408       .  A
C1217      H1224   1.084       .  S
C1218      S1220   1.799       .  S
S1219      H1222   1.401       .  S
S1220      H1221   1.407       .  S
C1225      C1226   1.402       .  A
C1225      C1230   1.417       .  A
C1226      C1227   1.407       .  A
C1226      H1235   1.083       .  S
C1227      C1228   1.413       .  A
C1228      C1229   1.401       .  A
C1229      C1230   1.400       .  A
C1229      H1236   1.085       .  S
S1232      H1233   1.408       .  S
C1237      C1238   1.401       .  A
C1237      C1242   1.417       .  A
C1238      C1239   1.399       .  A
C1238      H1247   1.084       .  S
C1239      C1240   1.416       .  A
C1239      S1243   1.803       .  S
C1240      C1241   1.403       .  A
C1241      C1242   1.407       .  A
C1241      H1248   1.084       .  S
S1243      H1246   1.407       .  S
S1244      H1245   1.406       .  S
C1249      C1250   1.403       .  A
C1249      C1254   1.410       .  A
C1250      C1251   1.405       .  A
C1250      H1259   1.082       .  S
C1251      C1252   1.412       .  A
C1251      S1255   1.805       .  S
C1252      C1253   1.400       .  A
C1253      C1254   1.397       .  A
C1253      H1260   1.083       .  S
C1254      S1256   1.798       .  S
S1255      H1258   1.407       .  S
S1256      H1257   1.405       .  S
C1261      C1262   1.406       .  A
C1261      C1266   1.413       .  A
C1262      C1263   1.396       .  A
C1262      H1271   1.084       .  S
C1263      C1264   1.418       .  A
C1263      S1267   1.803       .  S
C1264      C1265   1.412       .  A
C1265      C1266   1.404       .  A
C1265      H1272   1.084       .  S
C1266      S1268   1.799       .  S
S1267      H1270   1.408       .  S
S1268      H1269   1.406       .  S
C1273      C1274   1.408       .  A
C1273      C1278   1.416       .  A
C1274      C1275   1.411       .  A
C1274      H1283   1.083       .  S
C1275      C1276   1.419       .  A
C1275      S1279   1.804       .  S
C1276      C1277   1.401       .  A
C1277      C1278   1.390       .  A
C1277      H1284   1.085       .  S
C1278      S1280   1.806       .  S
S1279      H1282   1.399       .  S
S1280      H1281   1.408       .  S
C1285      C1286   1.406       .  A
C1285      C1290   1.419       .  A
C1286      C1287   1.396       .  A
C1286      H1295   1.084   1_554  S
C1287      C1288   1.412       .  A
C1287      S1291   1.804   1_554  S
C1289      H1296   1.084       .  S
S1291      H1294   1.407   1_556  S
S1292      H1293   1.401       .  S
C1297      C1302   1.407       .  A
C1298      C1299   1.401       .  A
C1298      H1307   1.083       .  S
C1299      S1303   1.800       .  S
C1300      C1301   1.406       .  A
C1301      C1302   1.395       .  A
C1301      H1308   1.082       .  S
C1302      S1304   1.802       .  S
S1303      H1306   1.408       .  S
S1304      H1305   1.406       .  S
C1309      C1314   1.412       .  A
C1310      C1311   1.401       .  A
C1310      H1319   1.084   1_554  S
C1311      S1315   1.802   1_554  S
C1312      C1313   1.406       .  A
C1313      C1314   1.402       .  A
C1313      H1320   1.083       .  S
C1314      S1316   1.802       .  S
S1315      H1318   1.407       .  S
S1316      H1317   1.407       .  S
C1321      C1322   1.405       .  A
C1321      C1326   1.404       .  A
C1322      C1323   1.364       .  A
C1322      H1331   1.085       .  S
C1323      C1324   1.410       .  A
C1323      S1327   1.814       .  S
C1324      C1325   1.402       .  A
C1325      C1326   1.382       .  A
C1325      H1332   1.081       .  S
C1326      S1328   1.801       .  S
S1327      H1330   1.394       .  S
S1328      H1329   1.405       .  S
C1333      C1334   1.383       .  A
C1333      C1338   1.387       .  A
C1334      C1335   1.375       .  A
C1334      H1343   1.085       .  S
C1335      C1336   1.433       .  A
C1335      S1339   1.812       .  S
C1336      C1337   1.410       .  A
C1337      C1338   1.380       .  A
C1337      H1344   1.080       .  S
C1338      S1340   1.805       .  S
S1339      H1342   1.397       .  S
S1340      H1341   1.407       .  S
C1345      C1347   1.550       .  S
C1345      C1349   1.552       .  S
C1345      C1348   1.509       .  S
C1345      C1669   1.479       .  S
C1346      C1350   1.545       .  S
C1346      C1352   1.521       .  S
C1346      C1351   1.546       .  S
C1346      C1657   1.474       .  S
C1347      C1355   1.380       .  A
C1347      C1686   1.393   1_554  A
C1348      C1359   1.368       .  A
C1348      C1687   1.370   1_554  A
C1349      C1363   1.397       .  A
C1349      C1688   1.369   1_554  A
C1350      C1683   1.393       .  A
C1350      C1353   1.386       .  A
C1351      C1684   1.370       .  A
C1351      C1357   1.390       .  A
C1352      C1685   1.369       .  A
C1352      C1360   1.371       .  A
C1353      N1354   1.361       .  A
C1353      H1366   1.079       .  S
N1354      C1691   1.352       .  A
N1354      C1984   1.442       .  S
C1355      N1690   1.352       .  A
C1355      H1356   1.081       .  S
C1357      N1694   1.357       .  A
C1357      H1367   1.082       .  S
N1358      C1693   1.357       .  A
N1358      C1359   1.350   1_556  A
N1358      C1633   1.429       .  S
C1359      H1365   1.083       .  S
C1360      N1361   1.349       .  A
C1360      H1362   1.084       .  S
N1361      C1699   1.361       .  A
N1361      C1624   1.440       .  S
C1363      N1697   1.361       .  A
C1363      H1364   1.080       .  S
C1368      C1370   1.538       .  S
C1368      C1372   1.523       .  S
C1368      C1371   1.536       .  S
C1368      C1660   1.466       .  S
C1369      C1373   1.555       .  S
C1369      C1375   1.533       .  S
C1369      C1374   1.526       .  S
C1369      C1672   1.468       .  S
C1370      C1378   1.368       .  A
C1370      C1373   1.388       .  A
C1371      C1382   1.395       .  A
C1371      C1374   1.363       .  A
C1372      C1386   1.371       .  A
C1372      C1375   1.373       .  A
C1373      C1376   1.392       .  A
C1374      C1380   1.369       .  A
C1375      C1383   1.388       .  A
C1376      N1377   1.365       .  A
C1376      H1389   1.082       .  S
N1377      C1378   1.355       .  A
N1377      C1609   1.447       .  S
C1378      H1379   1.080       .  S
C1380      N1381   1.351       .  A
C1380      H1390   1.082       .  S
N1381      C1382   1.365       .  A
N1381      C1597   1.446       .  S
C1382      H1388   1.082       .  S
C1383      N1384   1.360       .  A
C1383      H1385   1.083       .  S
N1384      C1386   1.351       .  A
N1384      C1585   1.433       .  S
C1386      H1387   1.083       .  S
C1391      O1742   1.256       .  A
C1391      O1393   1.265       .  A
C1391      C1645   1.480       .  S
Tb1392     O2422   2.361       .  S
Tb1392     O2087   2.334   1_544  S
Tb1392     O2070   2.401   1_545  S
Tb1392     O1744   2.560   1_554  S
Tb1392     O1403   2.512       .  S
Tb1392     O1396   2.383       .  S
Tb1392     O1413   2.348       .  S
O1393     Tb1397   2.377       .  S
O1394      C1405   1.260       .  A
O1394     Tb2069   2.363       .  S
C1395      O1400   1.258       .  A
C1395      O1416   1.256       .  A
C1395      C1552   1.471       .  S
O1396      C1748   1.258       .  A
Tb1397     O2066   2.363   1_545  S
Tb1397     O1737   2.507   1_554  S
Tb1397     O1742   2.342       .  S
Tb1397     O1400   2.335       .  S
Tb1397     O2079   2.375   1_544  S
Tb1397     O1409   2.551       .  S
Tb1397     O2071   2.336   1_545  S
O1398      C2076   1.262       .  A
O1398     Tb2064   2.401       .  S
O1399     Tb2069   2.336       .  S
O1401      C1411   1.303       .  A
O1401     Tb1733   2.507       .  S
C1402      O1415   1.259   1_554  A
C1402      C1636   1.485   1_554  S
C1404      O2070   1.262       .  A
C1404      O1413   1.248   1_565  A
C1404      C2233   1.480       .  S
C1405      O1407   1.259   1_554  A
C1405      C1573   1.484       .  S
O1406      C1727   1.256       .  A
O1406     Tb1733   2.342       .  S
O1407     Tb2069   2.375   1_556  S
O1408     Tb1728   2.560       .  S
O1409      C1410   1.311       .  A
C1410      C1437   1.648       .  S
C1411      C1436   1.646       .  S
C1412      O1732   1.258       .  A
C1412      O2086   1.260       .  A
C1412      C1621   1.489       .  S
O1414      C2084   1.260       .  A
O1414     Tb2400   2.361       .  S
O1415     Tb2064   2.334   1_556  S
C1417      O1432   1.264       .  A
C1417      O1419   1.261       .  A
C1417      C1612   1.483       .  S
Tb1418     O2112   2.374       .  S
Tb1418     O2113   2.329   1_545  S
Tb1418     O2096   2.341   1_545  S
Tb1418     O1434   2.484       .  S
Tb1418     O1429   2.566       .  S
Tb1418     O1422   2.353       .  S
Tb1418     O1439   2.361       .  S
O1419     Tb1423   2.341       .  S
O1420      C1431   1.256       .  A
O1420     Tb2095   2.354       .  S
C1421      O1426   1.263       .  A
C1421      O1442   1.262       .  A
C1421      C1516   1.484       .  S
O1422      C1438   1.259       .  A
Tb1423     O2092   2.354       .  S
Tb1423     O1427   2.568       .  S
Tb1423     O1432   2.380       .  S
Tb1423     O1426   2.336       .  S
Tb1423     O2105   2.375   1_545  S
Tb1423     O1435   2.481       .  S
Tb1423     O2097   2.342   1_545  S
O1424      C2102   1.260       .  A
O1424     Tb2090   2.341       .  S
O1425     Tb2095   2.342       .  S
O1427      C1437   1.314       .  A
C1428      O1441   1.258       .  A
C1428      C1600   1.494       .  S
C1430      O2096   1.260       .  A
C1430      O1439   1.262   1_565  A
C1430      C2197   1.483       .  S
C1431      O1433   1.264       .  A
C1431      C1540   1.472       .  S
O1433     Tb2095   2.375       .  S
O1435      C1436   1.296       .  A
C1438      O2112   1.257       .  A
C1438      C1588   1.475       .  S
O1440      C2110   1.257       .  A
O1440     Tb2090   2.374       .  S
O1441     Tb2090   2.329       .  S
C1443      C1445   1.555       .  S
C1443      C1447   1.541       .  S
C1443      C1446   1.511       .  S
C1443      C1825   1.463   1_554  S
C1444      C1448   1.511       .  S
C1444      C1450   1.550       .  S
C1444      C1449   1.559       .  S
C1444      C1504   1.462       .  S
C1445      C1453   1.398       .  A
C1445      C1448   1.363       .  A
C1446      C1457   1.362       .  A
C1446      C1449   1.363       .  A
C1447      C1461   1.381       .  A
C1447      C1450   1.391       .  A
C1448      C1451   1.372       .  A
C1449      C1455   1.404       .  A
C1450      C1458   1.384       .  A
C1451      N1452   1.351       .  A
C1451      H1464   1.083       .  S
N1452      C1453   1.363       .  A
N1452      C1576   1.444       .  S
C1453      H1454   1.081   1_554  S
C1455      N1456   1.369       .  A
C1455      H1465   1.082       .  S
N1456      C1457   1.346       .  A
N1456      C1549   1.447       .  S
C1457      H1463   1.083       .  S
C1458      N1459   1.356       .  A
C1458      H1460   1.082       .  S
N1459      C1461   1.358       .  A
N1459      C1564   1.441       .  S
C1461      H1462   1.079       .  S
C1466      C1468   1.518       .  S
C1466      C1470   1.553       .  S
C1466      C1469   1.527       .  S
C1466      C1501   1.458       .  S
C1467      C1471   1.542       .  S
C1467      C1473   1.534       .  S
C1467      C1472   1.525       .  S
C1467      C1492   1.451       .  S
C1468      C1476   1.361       .  A
C1468      C1471   1.364       .  A
C1469      C1480   1.387       .  A
C1469      C1472   1.367       .  A
C1470      C1484   1.385       .  A
C1470      C1473   1.387       .  A
C1471      C1474   1.401       .  A
C1472      C1478   1.368       .  A
C1473      C1481   1.375       .  A
C1474      N1475   1.367       .  A
C1474      H1487   1.082       .  S
N1475      C1476   1.349       .  A
N1475      C1537   1.446       .  S
C1476      H1477   1.083       .  S
C1478      N1479   1.348       .  A
C1478      H1488   1.082       .  S
N1479      C1480   1.360       .  A
N1479      C1513   1.428       .  S
C1480      H1486   1.082       .  S
C1481      N1482   1.350       .  A
C1481      H1483   1.082       .  S
N1482      C1484   1.359       .  A
N1482      C1528   1.433       .  S
C1484      H1485   1.083       .  S
C1489      C1779   1.463       .  S
C1489      C1490   1.401       .  A
C1489      C1494   1.394       .  A
C1490      C1491   1.364       .  A
C1490      H1499   1.085       .  S
C1491      C1492   1.413       .  A
C1491      S1495   1.812       .  S
C1492      C1493   1.406       .  A
C1493      C1494   1.374       .  A
C1493      H1500   1.082       .  S
C1494      S1496   1.800       .  S
S1495      H1498   1.398       .  S
S1496      H1833   1.405       .  S
H1497      S1832   1.405   1_554  S
C1501      C1502   1.406       .  A
C1501      C1506   1.427       .  A
C1502      C1503   1.370       .  A
C1502      H1511   1.079       .  S
C1503      C1504   1.395       .  A
C1503      S1507   1.806       .  S
C1504      C1505   1.388       .  A
C1505      C1506   1.370       .  A
C1505      H1512   1.084       .  S
C1506      S1508   1.819       .  S
S1507      H1510   1.403       .  S
S1508      H1509   1.394       .  S
C1513      C1514   1.398       .  A
C1513      C1518   1.407       .  A
C1514      C1515   1.397       .  A
C1514      H1523   1.084       .  S
C1515      C1516   1.415       .  A
C1515      S1519   1.798       .  S
C1516      C1517   1.407       .  A
C1517      C1518   1.401       .  A
C1517      H1524   1.081       .  S
C1518      S1520   1.802       .  S
S1519      H1522   1.407       .  S
S1520      H1521   1.407       .  S
C1525      C1526   1.408       .  A
C1525      C1530   1.417       .  A
C1525      C2102   1.483       .  S
C1526      C1527   1.397       .  A
C1526      H1535   1.083       .  S
C1527      C1528   1.408       .  A
C1527      S1531   1.802       .  S
C1528      C1529   1.401       .  A
C1529      C1530   1.399       .  A
C1529      H1536   1.083       .  S
C1530      S2204   1.801       .  S
S1531      H1534   1.407       .  S
S1532      C2202   1.801   1_545  S
S1532      H1533   1.408   1_545  S
C1537      C1538   1.407       .  A
C1537      C1542   1.416       .  A
C1538      C1539   1.390       .  A
C1538      H1547   1.084       .  S
C1539      C1540   1.406       .  A
C1539      S1543   1.803       .  S
C1540      C1541   1.408       .  A
C1541      C1542   1.411       .  A
C1541      H1548   1.085       .  S
C1542      S1544   1.799       .  S
S1543      H1546   1.403       .  S
S1544      H1545   1.406       .  S
C1549      C1550   1.409       .  A
C1549      C1554   1.415       .  A
C1550      C1551   1.392       .  A
C1550      H1895   1.083       .  S
C1551      C1552   1.407       .  A
C1551      S1891   1.808   1_554  S
C1552      C1553   1.407       .  A
C1553      C1554   1.408       .  A
C1553      H1560   1.084       .  S
C1554      S1556   1.799       .  S
S1555      C1887   1.808       .  S
S1555      H1558   1.401       .  S
S1556      H1557   1.407       .  S
H1559      C1886   1.083       .  S
C1561      C1562   1.402       .  A
C1561      C1566   1.417       .  A
C1561      C2076   1.480       .  S
C1562      C1563   1.407       .  A
C1562      H1571   1.083       .  S
C1563      C1564   1.413       .  A
C1563      S1903   1.803       .  S
C1564      C1565   1.401       .  A
C1565      C1566   1.400       .  A
C1565      H1572   1.085       .  S
C1566      S2240   1.804       .  S
S1567      C1899   1.803       .  S
S1567      H1906   1.407       .  S
S1568      C2238   1.804   1_545  S
S1568      H1569   1.408       .  S
H1570      S1903   1.407       .  S
C1573      C1574   1.401       .  A
C1573      C1578   1.417   1_554  A
C1574      C1575   1.399       .  A
C1574      H1583   1.084       .  S
C1575      C1576   1.416       .  A
C1575      S1579   1.803       .  S
C1576      C1577   1.403   1_554  A
C1577      C1578   1.407       .  A
C1577      H1584   1.084       .  S
C1578      S2252   1.799       .  S
S1579      H1582   1.407       .  S
S1580      C2250   1.799       .  S
S1580      H1581   1.406       .  S
C1585      C1586   1.403       .  A
C1585      C1590   1.410       .  A
C1586      C1587   1.405       .  A
C1586      H1595   1.082       .  S
C1587      C1588   1.412       .  A
C1587      S1591   1.805   1_545  S
C1588      C1589   1.400       .  A
C1589      C1590   1.397       .  A
C1589      H1596   1.083       .  S
C1590      S1592   1.798       .  S
S1591      H1594   1.407       .  S
S1592      H1593   1.405       .  S
C1597      C1598   1.406       .  A
C1597      C1602   1.413       .  A
C1598      C1599   1.396       .  A
C1598      H1607   1.084       .  S
C1599      C1600   1.418       .  A
C1599      S1603   1.803       .  S
C1600      C1601   1.412       .  A
C1601      C1602   1.404       .  A
C1601      H1608   1.084       .  S
C1602      S1604   1.799       .  S
S1603      H1606   1.408       .  S
S1604      H1605   1.406       .  S
C1609      C1610   1.408       .  A
C1609      C1614   1.416       .  A
C1610      C1611   1.411       .  A
C1610      H1619   1.083       .  S
C1611      C1612   1.419       .  A
C1611      S1615   1.804       .  S
C1612      C1613   1.401       .  A
C1613      C1614   1.390       .  A
C1613      H1620   1.085       .  S
C1614      S1616   1.806       .  S
S1615      H1618   1.399       .  S
S1616      H1617   1.408       .  S
C1621      C1622   1.406       .  A
C1621      C1626   1.419       .  A
C1622      C1623   1.396       .  A
C1622      H1631   1.084       .  S
C1623      C1624   1.412       .  A
C1623      S1627   1.804       .  S
C1624      C1961   1.402       .  A
C1625      C1960   1.402       .  A
C1625      C1962   1.405       .  A
C1625      H1632   1.084       .  S
C1626      C1961   1.405       .  A
C1626      S1964   1.797       .  S
S1627      H1630   1.407       .  S
S1628      C1962   1.797       .  S
S1628      H1629   1.401   1_655  S
C1633      C1970   1.399       .  A
C1633      C1638   1.407       .  A
C1634      C1969   1.399       .  A
C1634      C1635   1.401       .  A
C1634      H1643   1.083       .  S
C1635      C1972   1.419       .  A
C1635      S1639   1.800       .  S
C1636      C1971   1.419       .  A
C1636      C1637   1.406       .  A
C1637      C1638   1.395       .  A
C1637      H1644   1.082   1_556  S
C1638      S1640   1.802       .  S
S1639      H1642   1.408       .  S
S1640      H1641   1.406       .  S
C1645      C1982   1.406       .  A
C1645      C1650   1.412       .  A
C1646      C1981   1.406       .  A
C1646      C1647   1.401       .  A
C1646      H1655   1.084       .  S
C1647      C1984   1.411       .  A
C1647      S1651   1.802       .  S
C1648      C1983   1.411       .  A
C1648      C1649   1.406       .  A
C1648      N1690   1.442       .  S
C1649      C1650   1.402       .  A
C1649      H1656   1.083       .  S
C1650      S1652   1.802       .  S
S1651      H1654   1.407       .  S
S1652      H1653   1.407       .  S
C1657      C1658   1.405       .  A
C1657      C1662   1.404       .  A
C1658      C1659   1.364       .  A
C1658      H1667   1.085       .  S
C1659      C1660   1.410       .  A
C1659      S1663   1.814       .  S
C1660      C1661   1.402       .  A
C1661      C1662   1.382       .  A
C1661      H1668   1.081       .  S
C1662      S1664   1.801       .  S
S1663      H1666   1.394       .  S
S1664      H1665   1.405       .  S
C1669      C1670   1.383       .  A
C1669      C1674   1.387       .  A
C1670      C1671   1.375       .  A
C1670      H1679   1.085       .  S
C1671      C1672   1.433       .  A
C1671      S1675   1.812       .  S
C1672      C1673   1.410       .  A
C1673      C1674   1.380       .  A
C1673      H1680   1.080       .  S
C1674      S1676   1.805       .  S
S1675      H1678   1.397       .  S
S1676      H1677   1.407       .  S
C1681      C1683   1.550       .  S
C1681      C1685   1.552       .  S
C1681      C1684   1.509       .  S
C1681      C2005   1.479       .  S
C1682      C1686   1.545       .  S
C1682      C1688   1.521       .  S
C1682      C1687   1.546       .  S
C1682      C1993   1.474       .  S
C1683      C1691   1.380       .  A
C1684      C1695   1.368       .  A
C1685      C1699   1.397       .  A
C1686      C1689   1.386       .  A
C1687      C1693   1.390       .  A
C1688      C1696   1.371       .  A
C1689      N1690   1.361   1_556  A
C1689      H1702   1.079       .  S
C1691      H1692   1.081       .  S
C1693      H1703   1.082       .  S
N1694      C1695   1.350       .  A
N1694      C1969   1.429       .  S
C1695      H1701   1.083       .  S
C1696      N1697   1.349   1_556  A
C1696      H1698   1.084       .  S
N1697      C1960   1.440       .  S
C1699      H1700   1.080       .  S
C1704      C1706   1.538       .  S
C1704      C1708   1.523       .  S
C1704      C1707   1.536       .  S
C1704      C1996   1.466       .  S
C1705      C1709   1.555       .  S
C1705      C1711   1.533       .  S
C1705      C1710   1.526       .  S
C1705      C2008   1.468       .  S
C1706      C1714   1.368       .  A
C1706      C1709   1.388       .  A
C1707      C1718   1.395       .  A
C1707      C1710   1.363       .  A
C1708      C1722   1.371       .  A
C1708      C1711   1.373       .  A
C1709      C1712   1.392       .  A
C1710      C1716   1.369       .  A
C1711      C1719   1.388       .  A
C1712      N1713   1.365       .  A
C1712      H1725   1.082       .  S
N1713      C1714   1.355       .  A
N1713      C1945   1.447       .  S
C1714      H1715   1.080       .  S
C1716      N1717   1.351       .  A
C1716      H1726   1.082       .  S
N1717      C1718   1.365       .  A
N1717      C1933   1.446       .  S
C1718      H1724   1.082       .  S
C1719      N1720   1.360       .  A
C1719      H1721   1.083       .  S
N1720      C1722   1.351       .  A
N1720      C1921   1.433       .  S
C1722      H1723   1.083       .  S
C1727      O1729   1.265       .  A
C1727      C1981   1.480       .  S
Tb1728     O2086   2.361       .  S
Tb1728     O2423   2.334   1_545  S
Tb1728     O2406   2.401   1_545  S
Tb1728     O1739   2.512       .  S
Tb1728     O1732   2.383       .  S
Tb1728     O1749   2.348       .  S
O1729     Tb1733   2.377       .  S
O1730      C1741   1.260       .  A
O1730     Tb2405   2.363       .  S
C1731      O1736   1.258       .  A
C1731      O1752   1.256       .  A
C1731      C1888   1.471       .  S
Tb1733     O2402   2.363   1_545  S
Tb1733     O1736   2.335       .  S
Tb1733     O2415   2.375   1_545  S
Tb1733     O1745   2.551       .  S
Tb1733     O2407   2.336   1_545  S
O1734      C2412   1.262       .  A
O1734     Tb2400   2.401       .  S
O1735     Tb2405   2.336       .  S
O1737      C1747   1.303       .  A
C1738      O1751   1.259       .  A
C1738      C1972   1.485       .  S
C1740      O2406   1.262       .  A
C1740      O1749   1.248   1_565  A
C1740      C2569   1.480       .  S
C1741      O1743   1.259       .  A
C1741      C1909   1.484       .  S
O1743     Tb2405   2.375       .  S
O1745      C1746   1.311       .  A
C1746      C1773   1.648       .  S
C1747      C1772   1.646       .  S
C1748      O2422   1.260       .  A
C1748      C1957   1.489       .  S
O1750      C2420   1.260       .  A
O1750     Tb2064   2.361       .  S
O1751     Tb2400   2.334       .  S
C1753      O1768   1.264       .  A
C1753      O1755   1.261       .  A
C1753      C1948   1.483       .  S
Tb1754     O2448   2.374       .  S
Tb1754     O2449   2.329   1_545  S
Tb1754     O2432   2.341   1_545  S
Tb1754     O1770   2.484       .  S
Tb1754     O1765   2.566       .  S
Tb1754     O1758   2.353       .  S
Tb1754     O1775   2.361       .  S
O1755     Tb1759   2.341       .  S
O1756      C1767   1.256       .  A
O1756     Tb2431   2.354       .  S
C1757      O1762   1.263       .  A
C1757      O1778   1.262       .  A
C1757      C1852   1.484       .  S
O1758      C1774   1.259       .  A
Tb1759     O2428   2.354       .  S
Tb1759     O1763   2.568       .  S
Tb1759     O1768   2.380       .  S
Tb1759     O1762   2.336       .  S
Tb1759     O2441   2.375   1_545  S
Tb1759     O1771   2.481       .  S
Tb1759     O2433   2.342   1_545  S
O1760      C2438   1.260       .  A
O1760     Tb2426   2.341       .  S
O1761     Tb2431   2.342       .  S
O1763      C1773   1.314       .  A
C1764      O1777   1.258       .  A
C1764      C1936   1.494       .  S
C1766      O2432   1.260       .  A
C1766      O1775   1.262   1_565  A
C1766      C2533   1.483       .  S
C1767      O1769   1.264       .  A
C1767      C1876   1.472       .  S
O1769     Tb2431   2.375       .  S
O1771      C1772   1.296       .  A
C1774      O2448   1.257       .  A
C1774      C1924   1.475       .  S
O1776      C2446   1.257       .  A
O1776     Tb2426   2.374       .  S
O1777     Tb2426   2.329       .  S
C1779      C1781   1.555       .  S
C1779      C1783   1.541       .  S
C1779      C1782   1.511       .  S
C1780      C1784   1.511       .  S
C1780      C1786   1.550       .  S
C1780      C1785   1.559       .  S
C1780      C1840   1.462       .  S
C1781      C1789   1.398       .  A
C1781      C1784   1.363       .  A
C1782      C1793   1.362       .  A
C1782      C1785   1.363       .  A
C1783      C1797   1.381       .  A
C1783      C1786   1.391       .  A
C1784      C1787   1.372       .  A
C1785      C1791   1.404       .  A
C1786      C1794   1.384       .  A
C1787      N1788   1.351       .  A
C1787      H1800   1.083       .  S
N1788      C1789   1.363       .  A
N1788      C1912   1.444       .  S
C1789      H1790   1.081       .  S
C1791      N1792   1.369       .  A
C1791      H1801   1.082       .  S
N1792      C1793   1.346       .  A
N1792      C1885   1.447       .  S
C1793      H1799   1.083       .  S
C1794      N1795   1.356       .  A
C1794      H1796   1.082       .  S
N1795      C1797   1.358       .  A
N1795      C1900   1.441       .  S
C1797      H1798   1.079       .  S
C1802      C1804   1.518       .  S
C1802      C1806   1.553       .  S
C1802      C1805   1.527       .  S
C1802      C1837   1.458       .  S
C1803      C1807   1.542       .  S
C1803      C1809   1.534       .  S
C1803      C1808   1.525       .  S
C1803      C1828   1.451       .  S
C1804      C1812   1.361       .  A
C1804      C1807   1.364       .  A
C1805      C1816   1.387       .  A
C1805      C1808   1.367       .  A
C1806      C1820   1.385       .  A
C1806      C1809   1.387       .  A
C1807      C1810   1.401       .  A
C1808      C1814   1.368       .  A
C1809      C1817   1.375       .  A
C1810      N1811   1.367       .  A
C1810      H1823   1.082       .  S
N1811      C1812   1.349       .  A
N1811      C1873   1.446       .  S
C1812      H1813   1.083       .  S
C1814      N1815   1.348       .  A
C1814      H1824   1.082       .  S
N1815      C1816   1.360       .  A
N1815      C1849   1.428       .  S
C1816      H1822   1.082       .  S
C1817      N1818   1.350       .  A
C1817      H1819   1.082       .  S
N1818      C1820   1.359       .  A
N1818      C1864   1.433       .  S
C1820      H1821   1.083       .  S
C1825      C1826   1.401       .  A
C1825      C1830   1.394       .  A
C1826      C1827   1.364       .  A
C1826      H1835   1.085       .  S
C1827      C1828   1.413       .  A
C1827      S1831   1.812       .  S
C1828      C1829   1.406       .  A
C1829      C1830   1.374       .  A
C1829      H1836   1.082       .  S
C1830      S1832   1.800       .  S
S1831      H1834   1.398       .  S
C1837      C1838   1.406       .  A
C1837      C1842   1.427       .  A
C1838      C1839   1.370       .  A
C1838      H1847   1.079       .  S
C1839      C1840   1.395       .  A
C1839      S1843   1.806       .  S
C1840      C1841   1.388       .  A
C1841      C1842   1.370       .  A
C1841      H1848   1.084       .  S
C1842      S1844   1.819       .  S
S1843      H1846   1.403       .  S
S1844      H1845   1.394       .  S
C1849      C1850   1.398       .  A
C1849      C1854   1.407       .  A
C1850      C1851   1.397       .  A
C1850      H1859   1.084       .  S
C1851      C1852   1.415       .  A
C1851      S1855   1.798       .  S
C1852      C1853   1.407       .  A
C1853      C1854   1.401       .  A
C1853      H1860   1.081       .  S
C1854      S1856   1.802       .  S
S1855      H1858   1.407       .  S
S1856      H1857   1.407       .  S
C1861      C1862   1.408       .  A
C1861      C1866   1.417       .  A
C1861      C2438   1.483       .  S
C1862      C1863   1.397       .  A
C1862      H1871   1.083       .  S
C1863      C1864   1.408       .  A
C1863      S1867   1.802       .  S
C1864      C1865   1.401       .  A
C1865      C1866   1.399       .  A
C1865      H1872   1.083       .  S
C1866      S2540   1.801       .  S
S1867      H1870   1.407       .  S
S1868      C2538   1.801   1_545  S
S1868      H1869   1.408   1_545  S
C1873      C1874   1.407       .  A
C1873      C1878   1.416       .  A
C1874      C1875   1.390       .  A
C1874      H1883   1.084       .  S
C1875      C1876   1.406       .  A
C1875      S1879   1.803       .  S
C1876      C1877   1.408       .  A
C1877      C1878   1.411       .  A
C1877      H1884   1.085       .  S
C1878      S1880   1.799       .  S
S1879      H1882   1.403       .  S
S1880      H1881   1.406       .  S
C1885      C1886   1.409       .  A
C1885      C1890   1.415       .  A
C1886      C1887   1.392       .  A
C1887      C1888   1.407       .  A
C1888      C1889   1.407       .  A
C1889      C1890   1.408       .  A
C1889      H1896   1.084       .  S
C1890      S1892   1.799       .  S
S1891      H1894   1.401       .  S
S1892      H1893   1.407       .  S
C1897      C1898   1.402       .  A
C1897      C1902   1.417       .  A
C1897      C2412   1.480       .  S
C1898      C1899   1.407       .  A
C1898      H1907   1.083       .  S
C1899      C1900   1.413       .  A
C1900      C1901   1.401       .  A
C1901      C1902   1.400       .  A
C1901      H1908   1.085       .  S
C1902      S2576   1.804       .  S
S1904      C2574   1.804   1_545  S
S1904      H1905   1.408       .  S
C1909      C1910   1.401       .  A
C1909      C1914   1.417       .  A
C1910      C1911   1.399       .  A
C1910      H1919   1.084       .  S
C1911      C1912   1.416       .  A
C1911      S1915   1.803       .  S
C1912      C1913   1.403       .  A
C1913      C1914   1.407       .  A
C1913      H1920   1.084       .  S
C1914      S2588   1.799       .  S
S1915      H1918   1.407       .  S
S1916      C2586   1.799       .  S
S1916      H1917   1.406       .  S
C1921      C1922   1.403       .  A
C1921      C1926   1.410       .  A
C1922      C1923   1.405       .  A
C1922      H1931   1.082       .  S
C1923      C1924   1.412       .  A
C1923      S1927   1.805   1_545  S
C1924      C1925   1.400       .  A
C1925      C1926   1.397       .  A
C1925      H1932   1.083       .  S
C1926      S1928   1.798       .  S
S1927      H1930   1.407       .  S
S1928      H1929   1.405       .  S
C1933      C1934   1.406       .  A
C1933      C1938   1.413       .  A
C1934      C1935   1.396       .  A
C1934      H1943   1.084       .  S
C1935      C1936   1.418       .  A
C1935      S1939   1.803       .  S
C1936      C1937   1.412       .  A
C1937      C1938   1.404       .  A
C1937      H1944   1.084       .  S
C1938      S1940   1.799       .  S
S1939      H1942   1.408       .  S
S1940      H1941   1.406       .  S
C1945      C1946   1.408       .  A
C1945      C1950   1.416       .  A
C1946      C1947   1.411       .  A
C1946      H1955   1.083       .  S
C1947      C1948   1.419       .  A
C1947      S1951   1.804       .  S
C1948      C1949   1.401       .  A
C1949      C1950   1.390       .  A
C1949      H1956   1.085       .  S
C1950      S1952   1.806       .  S
S1951      H1954   1.399       .  S
S1952      H1953   1.408       .  S
C1957      C1958   1.406       .  A
C1957      C1962   1.419       .  A
C1958      C1959   1.396       .  A
C1958      H1967   1.084   1_554  S
C1959      C1960   1.412       .  A
C1959      S1963   1.804   1_554  S
C1961      H1968   1.084       .  S
S1963      H1966   1.407   1_556  S
S1964      H1965   1.401   1_655  S
C1969      C1974   1.407       .  A
C1970      C1971   1.401       .  A
C1970      H1979   1.083       .  S
C1971      S1975   1.800       .  S
C1972      C1973   1.406       .  A
C1973      C1974   1.395       .  A
C1973      H1980   1.082       .  S
C1974      S1976   1.802       .  S
S1975      H1978   1.408       .  S
S1976      H1977   1.406       .  S
C1981      C1986   1.412       .  A
C1982      C1983   1.401       .  A
C1982      H1991   1.084   1_554  S
C1983      S1987   1.802   1_554  S
C1984      C1985   1.406       .  A
C1985      C1986   1.402       .  A
C1985      H1992   1.083       .  S
C1986      S1988   1.802       .  S
S1987      H1990   1.407       .  S
S1988      H1989   1.407       .  S
C1993      C1994   1.405       .  A
C1993      C1998   1.404       .  A
C1994      C1995   1.364       .  A
C1994      H2003   1.085       .  S
C1995      C1996   1.410       .  A
C1995      S1999   1.814       .  S
C1996      C1997   1.402       .  A
C1997      C1998   1.382       .  A
C1997      H2004   1.081       .  S
C1998      S2000   1.801       .  S
S1999      H2002   1.394       .  S
S2000      H2001   1.405       .  S
C2005      C2006   1.383       .  A
C2005      C2010   1.387       .  A
C2006      C2007   1.375       .  A
C2006      H2015   1.085       .  S
C2007      C2008   1.433       .  A
C2007      S2011   1.812       .  S
C2008      C2009   1.410       .  A
C2009      C2010   1.380       .  A
C2009      H2016   1.080       .  S
C2010      S2012   1.805       .  S
S2011      H2014   1.397       .  S
S2012      H2013   1.407       .  S
C2017      C2019   1.550       .  S
C2017      C2021   1.552       .  S
C2017      C2020   1.509       .  S
C2017      C2341   1.479       .  S
C2018      C2022   1.545       .  S
C2018      C2024   1.521       .  S
C2018      C2023   1.546       .  S
C2018      C2329   1.474       .  S
C2019      C2027   1.380       .  A
C2019      C2358   1.393   1_554  A
C2020      C2031   1.368       .  A
C2020      C2359   1.370   1_554  A
C2021      C2035   1.397       .  A
C2021      C2360   1.369   1_554  A
C2022      C2355   1.393       .  A
C2022      C2025   1.386       .  A
C2023      C2356   1.370       .  A
C2023      C2029   1.390       .  A
C2024      C2357   1.369       .  A
C2024      C2032   1.371       .  A
C2025      N2026   1.361       .  A
C2025      H2038   1.079       .  S
N2026      C2363   1.352       .  A
N2026      C2656   1.442       .  S
C2027      N2362   1.352       .  A
C2027      H2028   1.081       .  S
C2029      N2366   1.357       .  A
C2029      H2039   1.082       .  S
N2030      C2365   1.357       .  A
N2030      C2031   1.350   1_556  A
N2030      C2305   1.429       .  S
C2031      H2037   1.083       .  S
C2032      N2033   1.349       .  A
C2032      H2034   1.084       .  S
N2033      C2371   1.361       .  A
N2033      C2296   1.440       .  S
C2035      N2369   1.361       .  A
C2035      H2036   1.080       .  S
C2040      C2042   1.538       .  S
C2040      C2044   1.523       .  S
C2040      C2043   1.536       .  S
C2040      C2332   1.466       .  S
C2041      C2045   1.555       .  S
C2041      C2047   1.533       .  S
C2041      C2046   1.526       .  S
C2041      C2344   1.468       .  S
C2042      C2050   1.368       .  A
C2042      C2045   1.388       .  A
C2043      C2054   1.395       .  A
C2043      C2046   1.363       .  A
C2044      C2058   1.371       .  A
C2044      C2047   1.373       .  A
C2045      C2048   1.392       .  A
C2046      C2052   1.369       .  A
C2047      C2055   1.388       .  A
C2048      N2049   1.365       .  A
C2048      H2061   1.082       .  S
N2049      C2050   1.355       .  A
N2049      C2281   1.447       .  S
C2050      H2051   1.080       .  S
C2052      N2053   1.351       .  A
C2052      H2062   1.082       .  S
N2053      C2054   1.365       .  A
N2053      C2269   1.446       .  S
C2054      H2060   1.082       .  S
C2055      N2056   1.360       .  A
C2055      H2057   1.083       .  S
N2056      C2058   1.351       .  A
N2056      C2257   1.433       .  S
C2058      H2059   1.083       .  S
C2063      O2414   1.256       .  A
C2063      O2065   1.265       .  A
C2063      C2317   1.480       .  S
Tb2064     O2416   2.560   1_554  S
Tb2064     O2075   2.512       .  S
Tb2064     O2068   2.383       .  S
Tb2064     O2085   2.348       .  S
O2065     Tb2069   2.377       .  S
O2066      C2077   1.260       .  A
C2067      O2072   1.258       .  A
C2067      O2088   1.256       .  A
C2067      C2224   1.471       .  S
O2068      C2420   1.258       .  A
Tb2069     O2409   2.507   1_554  S
Tb2069     O2414   2.342       .  S
Tb2069     O2072   2.335       .  S
Tb2069     O2081   2.551       .  S
O2073      C2083   1.303       .  A
O2073     Tb2405   2.507       .  S
C2074      O2087   1.259   1_554  A
C2074      C2308   1.485   1_554  S
C2076      O2085   1.248       .  A
C2077      O2079   1.259   1_554  A
C2077      C2245   1.484       .  S
O2078      C2399   1.256       .  A
O2078     Tb2405   2.342       .  S
O2080     Tb2400   2.560       .  S
O2081      C2082   1.311       .  A
C2082      C2109   1.648       .  S
C2083      C2108   1.646       .  S
C2084      O2404   1.258       .  A
C2084      C2293   1.489       .  S
C2089      O2104   1.264       .  A
C2089      O2091   1.261       .  A
C2089      C2284   1.483       .  S
Tb2090     O2106   2.484       .  S
Tb2090     O2101   2.566       .  S
Tb2090     O2094   2.353       .  S
Tb2090     O2111   2.361       .  S
O2091     Tb2095   2.341       .  S
O2092      C2103   1.256   1_545  A
C2093      O2098   1.263       .  A
C2093      O2114   1.262       .  A
C2093      C2188   1.484       .  S
O2094      C2110   1.259       .  A
Tb2095     O2099   2.568       .  S
Tb2095     O2104   2.380       .  S
Tb2095     O2098   2.336       .  S
Tb2095     O2107   2.481       .  S
O2099      C2109   1.314       .  A
C2100      O2113   1.258       .  A
C2100      C2272   1.494       .  S
C2102      O2111   1.262       .  A
C2103      O2105   1.264       .  A
C2103      C2212   1.472       .  S
O2107      C2108   1.296       .  A
C2110      C2260   1.475       .  S
C2115      C2117   1.555       .  S
C2115      C2119   1.541       .  S
C2115      C2118   1.511       .  S
C2115      C2497   1.463   1_554  S
C2116      C2120   1.511       .  S
C2116      C2122   1.550       .  S
C2116      C2121   1.559       .  S
C2116      C2176   1.462       .  S
C2117      C2125   1.398       .  A
C2117      C2120   1.363       .  A
C2118      C2129   1.362       .  A
C2118      C2121   1.363       .  A
C2119      C2133   1.381       .  A
C2119      C2122   1.391       .  A
C2120      C2123   1.372       .  A
C2121      C2127   1.404       .  A
C2122      C2130   1.384       .  A
C2123      N2124   1.351       .  A
C2123      H2136   1.083       .  S
N2124      C2125   1.363       .  A
N2124      C2248   1.444       .  S
C2125      H2126   1.081   1_554  S
C2127      N2128   1.369       .  A
C2127      H2137   1.082       .  S
N2128      C2129   1.346       .  A
N2128      C2221   1.447       .  S
C2129      H2135   1.083       .  S
C2130      N2131   1.356       .  A
C2130      H2132   1.082       .  S
N2131      C2133   1.358       .  A
N2131      C2236   1.441       .  S
C2133      H2134   1.079       .  S
C2138      C2140   1.518       .  S
C2138      C2142   1.553       .  S
C2138      C2141   1.527       .  S
C2138      C2173   1.458       .  S
C2139      C2143   1.542       .  S
C2139      C2145   1.534       .  S
C2139      C2144   1.525       .  S
C2139      C2164   1.451       .  S
C2140      C2148   1.361       .  A
C2140      C2143   1.364       .  A
C2141      C2152   1.387       .  A
C2141      C2144   1.367       .  A
C2142      C2156   1.385       .  A
C2142      C2145   1.387       .  A
C2143      C2146   1.401       .  A
C2144      C2150   1.368       .  A
C2145      C2153   1.375       .  A
C2146      N2147   1.367       .  A
C2146      H2159   1.082       .  S
N2147      C2148   1.349       .  A
N2147      C2209   1.446       .  S
C2148      H2149   1.083       .  S
C2150      N2151   1.348       .  A
C2150      H2160   1.082       .  S
N2151      C2152   1.360       .  A
N2151      C2185   1.428       .  S
C2152      H2158   1.082       .  S
C2153      N2154   1.350       .  A
C2153      H2155   1.082       .  S
N2154      C2156   1.359       .  A
N2154      C2200   1.433       .  S
C2156      H2157   1.083       .  S
C2161      C2451   1.463       .  S
C2161      C2162   1.401       .  A
C2161      C2166   1.394       .  A
C2162      C2163   1.364       .  A
C2162      H2171   1.085       .  S
C2163      C2164   1.413       .  A
C2163      S2167   1.812       .  S
C2164      C2165   1.406       .  A
C2165      C2166   1.374       .  A
C2165      H2172   1.082       .  S
C2166      S2168   1.800       .  S
S2167      H2170   1.398       .  S
S2168      H2505   1.405       .  S
H2169      S2504   1.405   1_554  S
C2173      C2174   1.406       .  A
C2173      C2178   1.427       .  A
C2174      C2175   1.370       .  A
C2174      H2183   1.079       .  S
C2175      C2176   1.395       .  A
C2175      S2179   1.806       .  S
C2176      C2177   1.388       .  A
C2177      C2178   1.370       .  A
C2177      H2184   1.084       .  S
C2178      S2180   1.819       .  S
S2179      H2182   1.403       .  S
S2180      H2181   1.394       .  S
C2185      C2186   1.398       .  A
C2185      C2190   1.407       .  A
C2186      C2187   1.397       .  A
C2186      H2195   1.084       .  S
C2187      C2188   1.415       .  A
C2187      S2191   1.798       .  S
C2188      C2189   1.407       .  A
C2189      C2190   1.401       .  A
C2189      H2196   1.081       .  S
C2190      S2192   1.802       .  S
S2191      H2194   1.407       .  S
S2192      H2193   1.407       .  S
C2197      C2198   1.408       .  A
C2197      C2202   1.417       .  A
C2198      C2199   1.397       .  A
C2198      H2207   1.083       .  S
C2199      C2200   1.408       .  A
C2199      S2203   1.802       .  S
C2200      C2201   1.401       .  A
C2201      C2202   1.399       .  A
C2201      H2208   1.083       .  S
S2203      H2206   1.407       .  S
S2204      H2205   1.408       .  S
C2209      C2210   1.407       .  A
C2209      C2214   1.416       .  A
C2210      C2211   1.390       .  A
C2210      H2219   1.084       .  S
C2211      C2212   1.406       .  A
C2211      S2215   1.803       .  S
C2212      C2213   1.408       .  A
C2213      C2214   1.411       .  A
C2213      H2220   1.085       .  S
C2214      S2216   1.799       .  S
S2215      H2218   1.403       .  S
S2216      H2217   1.406       .  S
C2221      C2222   1.409       .  A
C2221      C2226   1.415       .  A
C2222      C2223   1.392       .  A
C2222      H2567   1.083       .  S
C2223      C2224   1.407       .  A
C2223      S2563   1.808   1_554  S
C2224      C2225   1.407       .  A
C2225      C2226   1.408       .  A
C2225      H2232   1.084       .  S
C2226      S2228   1.799       .  S
S2227      C2559   1.808       .  S
S2227      H2230   1.401       .  S
S2228      H2229   1.407       .  S
H2231      C2558   1.083       .  S
C2233      C2234   1.402       .  A
C2233      C2238   1.417       .  A
C2234      C2235   1.407       .  A
C2234      H2243   1.083       .  S
C2235      C2236   1.413       .  A
C2235      S2575   1.803       .  S
C2236      C2237   1.401       .  A
C2237      C2238   1.400       .  A
C2237      H2244   1.085       .  S
S2239      C2571   1.803       .  S
S2239      H2578   1.407       .  S
S2240      H2241   1.408       .  S
H2242      S2575   1.407       .  S
C2245      C2246   1.401       .  A
C2245      C2250   1.417   1_554  A
C2246      C2247   1.399       .  A
C2246      H2255   1.084       .  S
C2247      C2248   1.416       .  A
C2247      S2251   1.803       .  S
C2248      C2249   1.403   1_554  A
C2249      C2250   1.407       .  A
C2249      H2256   1.084       .  S
S2251      H2254   1.407       .  S
S2252      H2253   1.406       .  S
C2257      C2258   1.403       .  A
C2257      C2262   1.410       .  A
C2258      C2259   1.405       .  A
C2258      H2267   1.082       .  S
C2259      C2260   1.412       .  A
C2259      S2263   1.805       .  S
C2260      C2261   1.400       .  A
C2261      C2262   1.397       .  A
C2261      H2268   1.083       .  S
C2262      S2264   1.798       .  S
S2263      H2266   1.407       .  S
S2264      H2265   1.405       .  S
C2269      C2270   1.406       .  A
C2269      C2274   1.413       .  A
C2270      C2271   1.396       .  A
C2270      H2279   1.084       .  S
C2271      C2272   1.418       .  A
C2271      S2275   1.803       .  S
C2272      C2273   1.412       .  A
C2273      C2274   1.404       .  A
C2273      H2280   1.084       .  S
C2274      S2276   1.799       .  S
S2275      H2278   1.408       .  S
S2276      H2277   1.406       .  S
C2281      C2282   1.408       .  A
C2281      C2286   1.416       .  A
C2282      C2283   1.411       .  A
C2282      H2291   1.083       .  S
C2283      C2284   1.419       .  A
C2283      S2287   1.804       .  S
C2284      C2285   1.401       .  A
C2285      C2286   1.390       .  A
C2285      H2292   1.085       .  S
C2286      S2288   1.806       .  S
S2287      H2290   1.399       .  S
S2288      H2289   1.408       .  S
C2293      C2294   1.406       .  A
C2293      C2298   1.419       .  A
C2294      C2295   1.396       .  A
C2294      H2303   1.084       .  S
C2295      C2296   1.412       .  A
C2295      S2299   1.804       .  S
C2296      C2633   1.402       .  A
C2297      C2632   1.402       .  A
C2297      C2634   1.405       .  A
C2297      H2304   1.084       .  S
C2298      C2633   1.405       .  A
C2298      S2636   1.797       .  S
S2299      H2302   1.407       .  S
S2300      C2634   1.797       .  S
S2300      H2301   1.401   1_655  S
C2305      C2642   1.399       .  A
C2305      C2310   1.407       .  A
C2306      C2641   1.399       .  A
C2306      C2307   1.401       .  A
C2306      H2315   1.083       .  S
C2307      C2644   1.419       .  A
C2307      S2311   1.800       .  S
C2308      C2643   1.419       .  A
C2308      C2309   1.406       .  A
C2309      C2310   1.395       .  A
C2309      H2316   1.082   1_556  S
C2310      S2312   1.802       .  S
S2311      H2314   1.408       .  S
S2312      H2313   1.406       .  S
C2317      C2654   1.406       .  A
C2317      C2322   1.412       .  A
C2318      C2653   1.406       .  A
C2318      C2319   1.401       .  A
C2318      H2327   1.084       .  S
C2319      C2656   1.411       .  A
C2319      S2323   1.802       .  S
C2320      C2655   1.411       .  A
C2320      C2321   1.406       .  A
C2320      N2362   1.442       .  S
C2321      C2322   1.402       .  A
C2321      H2328   1.083       .  S
C2322      S2324   1.802       .  S
S2323      H2326   1.407       .  S
S2324      H2325   1.407       .  S
C2329      C2330   1.405       .  A
C2329      C2334   1.404       .  A
C2330      C2331   1.364       .  A
C2330      H2339   1.085       .  S
C2331      C2332   1.410       .  A
C2331      S2335   1.814       .  S
C2332      C2333   1.402       .  A
C2333      C2334   1.382       .  A
C2333      H2340   1.081       .  S
C2334      S2336   1.801       .  S
S2335      H2338   1.394       .  S
S2336      H2337   1.405       .  S
C2341      C2342   1.383       .  A
C2341      C2346   1.387       .  A
C2342      C2343   1.375       .  A
C2342      H2351   1.085       .  S
C2343      C2344   1.433       .  A
C2343      S2347   1.812       .  S
C2344      C2345   1.410       .  A
C2345      C2346   1.380       .  A
C2345      H2352   1.080       .  S
C2346      S2348   1.805       .  S
S2347      H2350   1.397       .  S
S2348      H2349   1.407       .  S
C2353      C2355   1.550       .  S
C2353      C2357   1.552       .  S
C2353      C2356   1.509       .  S
C2353      C2677   1.479       .  S
C2354      C2358   1.545       .  S
C2354      C2360   1.521       .  S
C2354      C2359   1.546       .  S
C2354      C2665   1.474       .  S
C2355      C2363   1.380       .  A
C2356      C2367   1.368       .  A
C2357      C2371   1.397       .  A
C2358      C2361   1.386       .  A
C2359      C2365   1.390       .  A
C2360      C2368   1.371       .  A
C2361      N2362   1.361   1_556  A
C2361      H2374   1.079       .  S
C2363      H2364   1.081       .  S
C2365      H2375   1.082       .  S
N2366      C2367   1.350       .  A
N2366      C2641   1.429       .  S
C2367      H2373   1.083       .  S
C2368      N2369   1.349   1_556  A
C2368      H2370   1.084       .  S
N2369      C2632   1.440       .  S
C2371      H2372   1.080       .  S
C2376      C2378   1.538       .  S
C2376      C2380   1.523       .  S
C2376      C2379   1.536       .  S
C2376      C2668   1.466       .  S
C2377      C2381   1.555       .  S
C2377      C2383   1.533       .  S
C2377      C2382   1.526       .  S
C2377      C2680   1.468       .  S
C2378      C2386   1.368       .  A
C2378      C2381   1.388       .  A
C2379      C2390   1.395       .  A
C2379      C2382   1.363       .  A
C2380      C2394   1.371       .  A
C2380      C2383   1.373       .  A
C2381      C2384   1.392       .  A
C2382      C2388   1.369       .  A
C2383      C2391   1.388       .  A
C2384      N2385   1.365       .  A
C2384      H2397   1.082       .  S
N2385      C2386   1.355       .  A
N2385      C2617   1.447       .  S
C2386      H2387   1.080       .  S
C2388      N2389   1.351       .  A
C2388      H2398   1.082       .  S
N2389      C2390   1.365       .  A
N2389      C2605   1.446       .  S
C2390      H2396   1.082       .  S
C2391      N2392   1.360       .  A
C2391      H2393   1.083       .  S
N2392      C2394   1.351       .  A
N2392      C2593   1.433       .  S
C2394      H2395   1.083       .  S
C2399      O2401   1.265       .  A
C2399      C2653   1.480       .  S
Tb2400     O2411   2.512       .  S
Tb2400     O2404   2.383       .  S
Tb2400     O2421   2.348       .  S
O2401     Tb2405   2.377       .  S
O2402      C2413   1.260       .  A
C2403      O2408   1.258       .  A
C2403      O2424   1.256       .  A
C2403      C2560   1.471       .  S
Tb2405     O2408   2.335       .  S
Tb2405     O2417   2.551       .  S
O2409      C2419   1.303       .  A
C2410      O2423   1.259       .  A
C2410      C2644   1.485       .  S
C2412      O2421   1.248       .  A
C2413      O2415   1.259       .  A
C2413      C2581   1.484       .  S
O2417      C2418   1.311       .  A
C2418      C2445   1.648       .  S
C2419      C2444   1.646       .  S
C2420      C2629   1.489       .  S
C2425      O2440   1.264       .  A
C2425      O2427   1.261       .  A
C2425      C2620   1.483       .  S
Tb2426     O2442   2.484       .  S
Tb2426     O2437   2.566       .  S
Tb2426     O2430   2.353       .  S
Tb2426     O2447   2.361       .  S
O2427     Tb2431   2.341       .  S
O2428      C2439   1.256   1_545  A
C2429      O2434   1.263       .  A
C2429      O2450   1.262       .  A
C2429      C2524   1.484       .  S
O2430      C2446   1.259       .  A
Tb2431     O2435   2.568       .  S
Tb2431     O2440   2.380       .  S
Tb2431     O2434   2.336       .  S
Tb2431     O2443   2.481       .  S
O2435      C2445   1.314       .  A
C2436      O2449   1.258       .  A
C2436      C2608   1.494       .  S
C2438      O2447   1.262       .  A
C2439      O2441   1.264       .  A
C2439      C2548   1.472       .  S
O2443      C2444   1.296       .  A
C2446      C2596   1.475       .  S
C2451      C2453   1.555       .  S
C2451      C2455   1.541       .  S
C2451      C2454   1.511       .  S
C2452      C2456   1.511       .  S
C2452      C2458   1.550       .  S
C2452      C2457   1.559       .  S
C2452      C2512   1.462       .  S
C2453      C2461   1.398       .  A
C2453      C2456   1.363       .  A
C2454      C2465   1.362       .  A
C2454      C2457   1.363       .  A
C2455      C2469   1.381       .  A
C2455      C2458   1.391       .  A
C2456      C2459   1.372       .  A
C2457      C2463   1.404       .  A
C2458      C2466   1.384       .  A
C2459      N2460   1.351       .  A
C2459      H2472   1.083       .  S
N2460      C2461   1.363       .  A
N2460      C2584   1.444       .  S
C2461      H2462   1.081       .  S
C2463      N2464   1.369       .  A
C2463      H2473   1.082       .  S
N2464      C2465   1.346       .  A
N2464      C2557   1.447       .  S
C2465      H2471   1.083       .  S
C2466      N2467   1.356       .  A
C2466      H2468   1.082       .  S
N2467      C2469   1.358       .  A
N2467      C2572   1.441       .  S
C2469      H2470   1.079       .  S
C2474      C2476   1.518       .  S
C2474      C2478   1.553       .  S
C2474      C2477   1.527       .  S
C2474      C2509   1.458       .  S
C2475      C2479   1.542       .  S
C2475      C2481   1.534       .  S
C2475      C2480   1.525       .  S
C2475      C2500   1.451       .  S
C2476      C2484   1.361       .  A
C2476      C2479   1.364       .  A
C2477      C2488   1.387       .  A
C2477      C2480   1.367       .  A
C2478      C2492   1.385       .  A
C2478      C2481   1.387       .  A
C2479      C2482   1.401       .  A
C2480      C2486   1.368       .  A
C2481      C2489   1.375       .  A
C2482      N2483   1.367       .  A
C2482      H2495   1.082       .  S
N2483      C2484   1.349       .  A
N2483      C2545   1.446       .  S
C2484      H2485   1.083       .  S
C2486      N2487   1.348       .  A
C2486      H2496   1.082       .  S
N2487      C2488   1.360       .  A
N2487      C2521   1.428       .  S
C2488      H2494   1.082       .  S
C2489      N2490   1.350       .  A
C2489      H2491   1.082       .  S
N2490      C2492   1.359       .  A
N2490      C2536   1.433       .  S
C2492      H2493   1.083       .  S
C2497      C2498   1.401       .  A
C2497      C2502   1.394       .  A
C2498      C2499   1.364       .  A
C2498      H2507   1.085       .  S
C2499      C2500   1.413       .  A
C2499      S2503   1.812       .  S
C2500      C2501   1.406       .  A
C2501      C2502   1.374       .  A
C2501      H2508   1.082       .  S
C2502      S2504   1.800       .  S
S2503      H2506   1.398       .  S
C2509      C2510   1.406       .  A
C2509      C2514   1.427       .  A
C2510      C2511   1.370       .  A
C2510      H2519   1.079       .  S
C2511      C2512   1.395       .  A
C2511      S2515   1.806       .  S
C2512      C2513   1.388       .  A
C2513      C2514   1.370       .  A
C2513      H2520   1.084       .  S
C2514      S2516   1.819       .  S
S2515      H2518   1.403       .  S
S2516      H2517   1.394       .  S
C2521      C2522   1.398       .  A
C2521      C2526   1.407       .  A
C2522      C2523   1.397       .  A
C2522      H2531   1.084       .  S
C2523      C2524   1.415       .  A
C2523      S2527   1.798       .  S
C2524      C2525   1.407       .  A
C2525      C2526   1.401       .  A
C2525      H2532   1.081       .  S
C2526      S2528   1.802       .  S
S2527      H2530   1.407       .  S
S2528      H2529   1.407       .  S
C2533      C2534   1.408       .  A
C2533      C2538   1.417       .  A
C2534      C2535   1.397       .  A
C2534      H2543   1.083       .  S
C2535      C2536   1.408       .  A
C2535      S2539   1.802       .  S
C2536      C2537   1.401       .  A
C2537      C2538   1.399       .  A
C2537      H2544   1.083       .  S
S2539      H2542   1.407       .  S
S2540      H2541   1.408       .  S
C2545      C2546   1.407       .  A
C2545      C2550   1.416       .  A
C2546      C2547   1.390       .  A
C2546      H2555   1.084       .  S
C2547      C2548   1.406       .  A
C2547      S2551   1.803       .  S
C2548      C2549   1.408       .  A
C2549      C2550   1.411       .  A
C2549      H2556   1.085       .  S
C2550      S2552   1.799       .  S
S2551      H2554   1.403       .  S
S2552      H2553   1.406       .  S
C2557      C2558   1.409       .  A
C2557      C2562   1.415       .  A
C2558      C2559   1.392       .  A
C2559      C2560   1.407       .  A
C2560      C2561   1.407       .  A
C2561      C2562   1.408       .  A
C2561      H2568   1.084       .  S
C2562      S2564   1.799       .  S
S2563      H2566   1.401       .  S
S2564      H2565   1.407       .  S
C2569      C2570   1.402       .  A
C2569      C2574   1.417       .  A
C2570      C2571   1.407       .  A
C2570      H2579   1.083       .  S
C2571      C2572   1.413       .  A
C2572      C2573   1.401       .  A
C2573      C2574   1.400       .  A
C2573      H2580   1.085       .  S
S2576      H2577   1.408       .  S
C2581      C2582   1.401       .  A
C2581      C2586   1.417       .  A
C2582      C2583   1.399       .  A
C2582      H2591   1.084       .  S
C2583      C2584   1.416       .  A
C2583      S2587   1.803       .  S
C2584      C2585   1.403       .  A
C2585      C2586   1.407       .  A
C2585      H2592   1.084       .  S
S2587      H2590   1.407       .  S
S2588      H2589   1.406       .  S
C2593      C2594   1.403       .  A
C2593      C2598   1.410       .  A
C2594      C2595   1.405       .  A
C2594      H2603   1.082       .  S
C2595      C2596   1.412       .  A
C2595      S2599   1.805       .  S
C2596      C2597   1.400       .  A
C2597      C2598   1.397       .  A
C2597      H2604   1.083       .  S
C2598      S2600   1.798       .  S
S2599      H2602   1.407       .  S
S2600      H2601   1.405       .  S
C2605      C2606   1.406       .  A
C2605      C2610   1.413       .  A
C2606      C2607   1.396       .  A
C2606      H2615   1.084       .  S
C2607      C2608   1.418       .  A
C2607      S2611   1.803       .  S
C2608      C2609   1.412       .  A
C2609      C2610   1.404       .  A
C2609      H2616   1.084       .  S
C2610      S2612   1.799       .  S
S2611      H2614   1.408       .  S
S2612      H2613   1.406       .  S
C2617      C2618   1.408       .  A
C2617      C2622   1.416       .  A
C2618      C2619   1.411       .  A
C2618      H2627   1.083       .  S
C2619      C2620   1.419       .  A
C2619      S2623   1.804       .  S
C2620      C2621   1.401       .  A
C2621      C2622   1.390       .  A
C2621      H2628   1.085       .  S
C2622      S2624   1.806       .  S
S2623      H2626   1.399       .  S
S2624      H2625   1.408       .  S
C2629      C2630   1.406       .  A
C2629      C2634   1.419       .  A
C2630      C2631   1.396       .  A
C2630      H2639   1.084   1_554  S
C2631      C2632   1.412       .  A
C2631      S2635   1.804   1_554  S
C2633      H2640   1.084       .  S
S2635      H2638   1.407   1_556  S
S2636      H2637   1.401   1_655  S
C2641      C2646   1.407       .  A
C2642      C2643   1.401       .  A
C2642      H2651   1.083       .  S
C2643      S2647   1.800       .  S
C2644      C2645   1.406       .  A
C2645      C2646   1.395       .  A
C2645      H2652   1.082       .  S
C2646      S2648   1.802       .  S
S2647      H2650   1.408       .  S
S2648      H2649   1.406       .  S
C2653      C2658   1.412       .  A
C2654      C2655   1.401       .  A
C2654      H2663   1.084   1_554  S
C2655      S2659   1.802   1_554  S
C2656      C2657   1.406       .  A
C2657      C2658   1.402       .  A
C2657      H2664   1.083       .  S
C2658      S2660   1.802       .  S
S2659      H2662   1.407       .  S
S2660      H2661   1.407       .  S
C2665      C2666   1.405       .  A
C2665      C2670   1.404       .  A
C2666      C2667   1.364       .  A
C2666      H2675   1.085       .  S
C2667      C2668   1.410       .  A
C2667      S2671   1.814       .  S
C2668      C2669   1.402       .  A
C2669      C2670   1.382       .  A
C2669      H2676   1.081       .  S
C2670      S2672   1.801       .  S
S2671      H2674   1.394       .  S
S2672      H2673   1.405       .  S
C2677      C2678   1.383       .  A
C2677      C2682   1.387       .  A
C2678      C2679   1.375       .  A
C2678      H2687   1.085       .  S
C2679      C2680   1.433       .  A
C2679      S2683   1.812       .  S
C2680      C2681   1.410       .  A
C2681      C2682   1.380       .  A
C2681      H2688   1.080       .  S
C2682      S2684   1.805       .  S
S2683      H2686   1.397       .  S
S2684      H2685   1.407       .  S
