geometry optimzed in LAMMPS
_audit_creation_date              2020-11-30 
_audit_creation_method            'lammps2cif' 
_symmetry_space_group_name_H-M    'P1' 
_symmetry_Int_Tables_number       1 
_symmetry_cell_setting            triclinic 
loop_ 
_symmetry_equiv_pos_as_xyz 
  x,y,z 
_cell_length_a                    26.65925504 
_cell_length_b                    26.394435419731927 
_cell_length_c                    15.280193001519704 
_cell_angle_alpha                 89.76369304131318 
_cell_angle_beta                  89.7263159637504 
_cell_angle_gamma                 88.97673039072262 
loop_ 
_atom_site_label 
_atom_site_type_symbol 
_atom_site_fract_x 
_atom_site_fract_y 
_atom_site_fract_z 
_atom_site_charge 
O1          O  0.91775051  0.89099194  0.44281043    -0.71800
O2          O  0.96186906  0.03994063  0.44530518    -0.72800
O3          O  0.01317786  0.94153305  0.44585737    -0.61400
O4          O  0.86595354  0.98994728  0.44057221    -0.69900
O5          O  0.86692971  0.94123621  0.05633746    -0.69400
O6          O  0.01291653  0.98651122  0.06176297    -0.60700
O7          O  0.91507827  0.03758236  0.06072564    -0.73200
O8          O  0.96350319  0.88909846  0.05836350    -0.71900
Cu9        Cu  0.93974609  0.96583164  0.43909213     1.04600
Cu10       Cu  0.93949171  0.96367187  0.06438617     1.04300
C11         C  0.94173264  0.86457218  0.99914168     0.94400
C12         C  0.93865917  0.06421305  0.50467021     0.93500
C13         C  0.03779609  0.96357711  0.00300603     0.85600
C14         C  0.84147022  0.96702331  0.49899522     0.91900
O15         O  0.47965152  0.52713619  0.44507107    -0.71800
O16         O  0.43078033  0.38158815  0.45038259    -0.72800
O17         O  0.52972666  0.42925024  0.44263797    -0.61400
O18         O  0.38185490  0.48052750  0.45479139    -0.69900
O19         O  0.37796319  0.43425382  0.33919318    -0.69400
O20         O  0.52736104  0.47423208  0.32540405    -0.60700
O21         O  0.47305175  0.37847033  0.33087478    -0.73200
O22         O  0.43103703  0.52743410  0.33177116    -0.71900
Cu23       Cu  0.45572692  0.45469189  0.45301140     1.04600
Cu24       Cu  0.45226186  0.45365076  0.32675655     1.04300
C25         C  0.45591744  0.55165169  0.38702624     0.94400
C26         C  0.45043883  0.35509434  0.39085883     0.93500
C27         C  0.55365716  0.45267847  0.38391719     0.85600
C28         C  0.35513903  0.45845624  0.39896436     0.91900
C29         C  0.42114323  0.93375296  0.06249563    -0.01400
C30         C  0.42104358  0.96094119  0.19359159    -0.01400
C31         C  0.46004940  0.93393339  0.44089620    -0.01400
C32         C  0.45855107  0.96593892  0.31454516    -0.01400
O33         O  0.92145489  0.88048990  0.19722279    -0.71800
O34         O  0.96089863  0.02944580  0.19282944    -0.72800
O35         O  0.01515279  0.93370107  0.19187451    -0.61400
O36         O  0.86705900  0.97631518  0.19791680    -0.69900
O37         O  0.86860098  0.93179424  0.31582199    -0.69400
O38         O  0.01430957  0.98145090  0.30634571    -0.60700
O39         O  0.91615185  0.03107352  0.31004191    -0.73200
O40         O  0.96787278  0.88381065  0.31245810    -0.71900
Cu41       Cu  0.94091484  0.95492769  0.18979356     1.04600
Cu42       Cu  0.94171195  0.95693562  0.31562915     1.04300
C43         C  0.94657377  0.85738896  0.25539797     0.94400
C44         C  0.93839940  0.05544435  0.25058950     0.93500
C45         C  0.03934864  0.95752355  0.24902866     0.85600
C46         C  0.84300906  0.95299887  0.25635428     0.91900
O47         O  0.43023732  0.36799803  0.19413965    -0.71800
O48         O  0.47829679  0.51650775  0.19970011    -0.72800
O49         O  0.38166086  0.46695933  0.19458789    -0.61400
O50         O  0.52640703  0.41515092  0.20304034    -0.69900
O51         O  0.52968479  0.46198545  0.08695932    -0.69400
O52         O  0.38266174  0.42229498  0.07708457    -0.60700
O53         O  0.43564253  0.51850612  0.08116066    -0.73200
O54         O  0.47849937  0.36796553  0.08004501    -0.71900
Cu55       Cu  0.45410111  0.44149600  0.20284345     1.04600
Cu56       Cu  0.45681071  0.44268328  0.07651712     1.04300
C57         C  0.45328164  0.34329176  0.13511277     0.94400
C58         C  0.45685720  0.54290885  0.14107494     0.93500
C59         C  0.35756868  0.44469412  0.13586395     0.85600
C60         C  0.55236467  0.43681013  0.14547429     0.91900
C61         C  0.97389277  0.44042221  0.32232980    -0.01400
C62         C  0.93497919  0.44811651  0.44015506    -0.01400
C63         C  0.97427195  0.47334429  0.19405744    -0.01400
C64         C  0.93491626  0.47630525  0.06940907    -0.01400
C65         C  0.22455248  0.49182573  0.11547881    -0.27100
C66         C  0.19705361  0.44822262  0.13551032     0.06500
C67         C  0.22326314  0.40282653  0.15529009     0.26100
C68         C  0.27586544  0.40159394  0.15461672    -0.11600
C69         C  0.30268419  0.44556517  0.13544877    -0.25500
C70         C  0.27678159  0.49068774  0.11617177     0.36900
C71         C  0.14171170  0.45304365  0.14464769     0.06500
F72         F  0.19833875  0.36034545  0.17806247    -0.19300
H73         H  0.29568795  0.36667382  0.17081253     0.16300
F74         F  0.30208234  0.53332458  0.09557899    -0.23000
H75         H  0.20533421  0.52711292  0.09931667     0.18100
C76         C  0.12233862  0.49146080  0.19683878     0.27700
C77         C  0.07161304  0.49418937  0.21458399    -0.11600
C78         C  0.03388779  0.46414152  0.17194388    -0.25600
C79         C  0.05586113  0.42258496  0.12622073     0.37000
C80         C  0.10815929  0.41813519  0.11006218    -0.27200
F81         F  0.15292286  0.52363954  0.23933139    -0.19300
H82         H  0.06235390  0.52029768  0.26685441     0.16300
F83         F  0.03340033  0.37797330  0.12919621    -0.23000
H84         H  0.12266770  0.38484381  0.07662990     0.18200
C85         C  0.68706165  0.39181734  0.13251120    -0.27100
C86         C  0.71179060  0.43820895  0.14127498     0.06500
C87         C  0.68256739  0.48234557  0.15950720     0.26100
C88         C  0.63082293  0.48101229  0.15958763    -0.11600
C89         C  0.60670189  0.43541758  0.14870973    -0.25500
C90         C  0.63462488  0.39028250  0.13831763     0.36900
C91         C  0.76641772  0.44361482  0.12303887     0.06500
F92         F  0.70378845  0.52766607  0.17600238    -0.19300
H93         H  0.60937349  0.51581457  0.16965887     0.16300
F94         F  0.61109144  0.34554478  0.12802381    -0.23000
H95         H  0.70743948  0.35728430  0.11686007     0.18100
C96         C  0.80384579  0.40777740  0.13997305     0.26100
C97         C  0.85475289  0.41946805  0.12664791    -0.11600
C98         C  0.87394842  0.46674726  0.09463777    -0.25600
C99         C  0.83082877  0.50029847  0.07471178     0.37000
C100        C  0.78125214  0.48738924  0.08345230    -0.27200
F101        F  0.79210138  0.35935710  0.16100269    -0.19300
H102        H  0.87403912  0.38495650  0.12681906     0.16300
F103        F  0.82979735  0.54791442  0.04287424    -0.23000
H104        H  0.75323069  0.51327154  0.05646539     0.18200
C105        C  0.92539527  0.31140776  0.22324894    -0.27100
C106        C  0.95250735  0.27315356  0.26599463     0.06500
C107        C  0.99201818  0.28791158  0.31737364     0.26100
C108        C  0.99638151  0.33840647  0.34045474    -0.11600
C109        C  0.96836118  0.37973281  0.30150658    -0.25500
C110        C  0.94049680  0.36225812  0.23194554     0.36900
C111        C  0.94476270  0.21843337  0.25127971     0.06500
F112        F  0.02811860  0.25424146  0.34237420    -0.19300
H113        H  0.02650859  0.34321135  0.38559148     0.16300
F114        F  0.94740282  0.38745385  0.15932559    -0.23000
H115        H  0.89895208  0.30135884  0.17327705     0.18100
C116        C  0.90276126  0.19406277  0.28649514     0.26100
C117        C  0.90049070  0.14092323  0.28624096    -0.11600
C118        C  0.93970776  0.11153712  0.24943974    -0.25600
C119        C  0.98105102  0.13626611  0.21240216     0.37000
C120        C  0.98358825  0.18902246  0.21398898    -0.27200
F121        F  0.86516892  0.22154298  0.32457802    -0.19300
H122        H  0.86831033  0.12272068  0.31528133     0.16300
F123        F  0.01986072  0.10940537  0.17678181    -0.23000
H124        H  0.01654045  0.20709853  0.18744481     0.18200
C125        C  0.00730583  0.62074545  0.19104628    -0.27100
C126        C  0.97112766  0.64036695  0.24764697     0.06500
C127        C  0.93882984  0.60660683  0.28898440     0.26100
C128        C  0.94541359  0.55366534  0.27818480    -0.11600
C129        C  0.97679625  0.53285211  0.21545175    -0.25500
C130        C  0.00771600  0.56957683  0.16956606     0.36900
C131        C  0.96429308  0.69609593  0.25519578     0.06500
F132        F  0.89953143  0.62535724  0.33585459    -0.19300
H133        H  0.92003652  0.52815349  0.30389420     0.16300
F134        F  0.03796310  0.55680831  0.10110269    -0.23000
H135        H  0.03178298  0.64582322  0.15534451     0.18100
C136        C  0.00573553  0.72728550  0.26918934     0.26100
C137        C  0.99938826  0.77986434  0.27098019    -0.11600
C138        C  0.95211624  0.80215629  0.25582828    -0.25600
C139        C  0.91074897  0.77140918  0.24134661     0.37000
C140        C  0.91668055  0.71880776  0.24279289    -0.27200
F141        F  0.05231699  0.70695362  0.28138335    -0.19300
H142        H  0.03166087  0.80330857  0.28212529     0.16300
F143        F  0.86446972  0.79222434  0.22793573    -0.23000
H144        H  0.88397003  0.69604657  0.23266035     0.18200
C145        C  0.59286919  0.90880912  0.22778656    -0.27100
C146        C  0.62579580  0.94894599  0.24267631     0.06500
C147        C  0.60528484  0.99213933  0.27991693     0.26100
C148        C  0.55575748  0.99417487  0.30421401    -0.11600
C149        C  0.51798667  0.95814107  0.28455509    -0.25500
C150        C  0.54113696  0.91270667  0.25203925     0.36900
C151        C  0.68193689  0.94565348  0.23640079     0.06500
F152        F  0.63425006  0.03116247  0.30551778    -0.19300
H153        H  0.55100144  0.02515965  0.34708459     0.16300
F154        F  0.51979152  0.86819426  0.26789512    -0.23000
H155        H  0.60772471  0.87270113  0.20533914     0.18100
C156        C  0.70995563  0.90350741  0.26748797     0.26100
C157        C  0.76232709  0.90638177  0.27678904    -0.11600
C158        C  0.78770854  0.95072555  0.25336204    -0.25600
C159        C  0.76010087  0.99212309  0.22038895     0.37000
C160        C  0.70834992  0.98924199  0.21090570    -0.27200
F161        F  0.68709082  0.85985673  0.28993264    -0.19300
H162        H  0.78319823  0.87364907  0.30083043     0.16300
F163        F  0.78310568  0.03583991  0.19803479    -0.23000
H164        H  0.68861767  0.02177227  0.18346143     0.18200
C165        C  0.39799247  0.21485758  0.10572493    -0.27100
C166        C  0.44002647  0.18222108  0.11648023     0.06500
C167        C  0.48783111  0.20456382  0.12284753     0.26100
C168        C  0.49195956  0.25720312  0.12822124    -0.11600
C169        C  0.44904258  0.28837592  0.12767104    -0.25500
C170        C  0.40213217  0.26712002  0.11419015     0.36900
C171        C  0.43215895  0.12640912  0.12842238     0.06500
F172        F  0.53087113  0.17653875  0.12512124    -0.19300
H173        H  0.52870610  0.27363131  0.13458992     0.16300
F174        F  0.36042460  0.29706662  0.10712938    -0.23000
H175        H  0.36136625  0.20004174  0.09157595     0.18100
C176        C  0.38965624  0.10941766  0.17289247     0.26100
C177        C  0.38337380  0.05830763  0.18981915    -0.11600
C178        C  0.42000364  0.01959289  0.16754692    -0.25600
C179        C  0.46222124  0.03767755  0.12622135     0.37000
C180        C  0.46809837  0.08953743  0.10420934    -0.27200
F181        F  0.35415441  0.14197345  0.20489623    -0.19300
H182        H  0.34568003  0.05193181  0.20955212     0.16300
F183        F  0.50338281  0.00827383  0.13555797    -0.23000
H184        H  0.50313135  0.10096735  0.07567238     0.18200
C185        C  0.17473388  0.99721820  0.24372283    -0.27100
C186        C  0.20018668  0.95027860  0.25322250     0.06500
C187        C  0.17149759  0.90623976  0.26429782     0.26100
C188        C  0.11918286  0.90903047  0.26087996    -0.11600
C189        C  0.09433081  0.95576447  0.25079691    -0.25500
C190        C  0.12226855  0.00009590  0.24441727     0.36900
C191        C  0.25617091  0.94755827  0.25013086     0.06500
F192        F  0.19363687  0.86063688  0.28155004    -0.19300
H193        H  0.09788222  0.87470905  0.26853924     0.16300
F194        F  0.09886011  0.04592305  0.23634028    -0.23000
H195        H  0.19536741  0.03177624  0.23453420     0.18100
C196        C  0.28555352  0.98268212  0.29356150     0.26100
C197        C  0.33804032  0.97898897  0.28916518    -0.11600
C198        C  0.36408741  0.94775811  0.22895999    -0.25600
C199        C  0.33396132  0.90509949  0.20620339     0.37000
C200        C  0.28144037  0.90754881  0.20869243    -0.27200
F201        F  0.26414172  0.02031673  0.34202992    -0.19300
H202        H  0.35659752  0.00710315  0.32292217     0.16300
F203        F  0.35112577  0.85699187  0.21145359    -0.23000
H204        H  0.26096063  0.87612051  0.18232010     0.18200
C205        C  0.49210548  0.68307646  0.12943364    -0.27100
C206        C  0.44482623  0.70798014  0.13721009     0.06500
C207        C  0.40299047  0.67709370  0.15485549     0.26100
C208        C  0.40758400  0.62397182  0.15601159    -0.11600
C209        C  0.45416762  0.59951594  0.14405981    -0.25500
C210        C  0.49680493  0.62966335  0.13354199     0.36900
C211        C  0.43774480  0.76479151  0.12196606     0.06500
F212        F  0.35730832  0.69811208  0.17288321    -0.19300
H213        H  0.37442326  0.60169187  0.16730980     0.16300
F214        F  0.54283469  0.60746181  0.12441513    -0.23000
H215        H  0.52566290  0.70443677  0.11817574     0.18100
C216        C  0.47182379  0.80173846  0.14882803     0.26100
C217        C  0.46239346  0.85440576  0.13179500    -0.11600
C218        C  0.42074800  0.87368300  0.08698590    -0.25600
C219        C  0.38548352  0.83452681  0.06358725     0.37000
C220        C  0.39541877  0.78273391  0.07742823    -0.27200
F221        F  0.51602920  0.78697990  0.18522388    -0.19300
H222        H  0.49217511  0.88057923  0.13525889     0.16300
F223        F  0.33611173  0.84271845  0.04947045    -0.23000
H224        H  0.36770263  0.75633078  0.05520097     0.18200
C225        C  0.80048341  0.51226031  0.38732599    -0.27100
C226        C  0.77301830  0.46901241  0.36822457     0.06500
C227        C  0.80158768  0.42744299  0.33884666     0.26100
C228        C  0.85452473  0.42752673  0.34248916    -0.11600
C229        C  0.88029672  0.46209867  0.39672791    -0.25500
C230        C  0.85301303  0.50894179  0.40020655     0.36900
C231        C  0.71641871  0.46643776  0.37923465     0.06500
F232        F  0.77885804  0.38414215  0.31542453    -0.19300
H233        H  0.87207565  0.39327414  0.32120670     0.16300
F234        F  0.87511471  0.55260488  0.41868538    -0.23000
H235        H  0.78178677  0.54786306  0.40191333     0.18100
C236        C  0.68415781  0.50848610  0.36306221     0.26100
C237        C  0.63178092  0.50328827  0.36484947    -0.11600
C238        C  0.60951371  0.45692942  0.38548080    -0.25600
C239        C  0.64110998  0.41596142  0.40872951     0.37000
C240        C  0.69362759  0.42082803  0.40619557    -0.27200
F241        F  0.70250072  0.55428318  0.34038114    -0.19300
H242        H  0.60845534  0.53572898  0.34842860     0.16300
F243        F  0.62135849  0.37063941  0.43100789    -0.23000
H244        H  0.71639052  0.38847972  0.42593819     0.18200
C245        C  0.48864569  0.21767975  0.41305446    -0.27100
C246        C  0.44376135  0.19256863  0.39435089     0.06500
C247        C  0.40014658  0.22188847  0.37819444     0.26100
C248        C  0.40215027  0.27507747  0.37834368    -0.11600
C249        C  0.44778265  0.29948930  0.39271143    -0.25500
C250        C  0.49088206  0.27045410  0.41086885     0.36900
C251        C  0.44580636  0.13697479  0.37764113     0.06500
F252        F  0.35633899  0.19929375  0.35857945    -0.19300
H253        H  0.36845482  0.29723190  0.36481523     0.16300
F254        F  0.53509861  0.29323018  0.42722410    -0.23000
H255        H  0.52263682  0.19608907  0.42697010     0.18100
C256        C  0.48148232  0.11848330  0.32001492     0.26100
C257        C  0.48244935  0.06790919  0.29643114    -0.11600
C258        C  0.45391008  0.02806036  0.33678760    -0.25600
C259        C  0.42105157  0.04916805  0.39985796     0.37000
C260        C  0.41417314  0.10170324  0.41655311    -0.27200
F261        F  0.51550653  0.14969434  0.28314862    -0.19300
H262        H  0.51056279  0.06241575  0.24777544     0.16300
F263        F  0.39594688  0.01827298  0.44797933    -0.23000
H264        H  0.38613264  0.11416342  0.46358894     0.18200
C265        C  0.50339169  0.68249066  0.35825096    -0.27100
C266        C  0.45968198  0.71109602  0.37516328     0.06500
C267        C  0.41424106  0.68684618  0.39224351     0.26100
C268        C  0.41315785  0.63429937  0.39547578    -0.11600
C269        C  0.45738857  0.60611536  0.38276253    -0.25500
C270        C  0.50239854  0.63008389  0.36302506     0.36900
C271        C  0.46294521  0.76574499  0.38542853     0.06500
F272        F  0.37161478  0.71389278  0.40945354    -0.19300
H273        H  0.37822388  0.61558679  0.41001021     0.16300
F274        F  0.54498711  0.60286144  0.34711172    -0.23000
H275        H  0.53844590  0.70087812  0.34334774     0.18100
C276        C  0.49732339  0.78556650  0.44250993     0.26100
C277        C  0.49400669  0.83629212  0.46384148    -0.11600
C278        C  0.46267873  0.87311138  0.41975847    -0.25600
C279        C  0.43649218  0.85084600  0.35160163     0.37000
C280        C  0.43151823  0.79877143  0.34041754    -0.27200
F281        F  0.53271674  0.75593149  0.48184758    -0.19300
H282        H  0.52056454  0.84574499  0.51322423     0.16300
F283        F  0.41987605  0.87953251  0.28939118    -0.23000
H284        H  0.40627983  0.78458578  0.29138585     0.18200
C285        C  0.21801849  0.50111287  0.39990815    -0.27100
C286        C  0.19389931  0.45529109  0.41793982     0.06500
C287        C  0.22388652  0.41142229  0.43340955     0.26100
C288        C  0.27610948  0.41302001  0.42642394    -0.11600
C289        C  0.29990143  0.45836988  0.40599309    -0.25500
C290        C  0.27063577  0.50269007  0.39371815     0.36900
C291        C  0.13873212  0.45043979  0.40438753     0.06500
F292        F  0.20253151  0.36671941  0.45512292    -0.19300
H293        H  0.29816669  0.37875496  0.43781715     0.16300
F294        F  0.29277854  0.54692994  0.37217662    -0.23000
H295        H  0.19609795  0.53522457  0.38717735     0.18100
C296        C  0.10111437  0.48101487  0.44248590     0.26100
C297        C  0.04973905  0.47092397  0.42711525    -0.11600
C298        C  0.03292082  0.44050894  0.35665007    -0.25600
C299        C  0.07429137  0.40868184  0.32332080     0.37000
C300        C  0.12365088  0.41264025  0.34944758    -0.27200
F301        F  0.11358986  0.51737849  0.50033036    -0.19300
H302        H  0.02496245  0.48165771  0.47872154     0.16300
F303        F  0.07050223  0.37081873  0.26550908    -0.23000
H304        H  0.15138378  0.38746800  0.31987182     0.18200
C305        C  0.98804305  0.72796563  0.02144150    -0.27100
C306        C  0.94480370  0.70099522  0.00065787     0.06500
C307        C  0.90164857  0.72827641  0.97354880     0.26100
C308        C  0.90144547  0.78137901  0.97026715    -0.11600
C309        C  0.94372050  0.80837589  0.99621886    -0.25500
C310        C  0.98743005  0.78114339  0.02025979     0.36900
C311        C  0.94288195  0.64525280  0.01592168     0.06500
F312        F  0.85940418  0.70351198  0.95131144    -0.19300
H313        H  0.86760614  0.80150031  0.95023752     0.16300
F314        F  0.02871268  0.80724646  0.54604037    -0.23000
H315        H  0.02212687  0.70908353  0.54310082     0.18100
C316        C  0.97498262  0.61055981  0.97425548     0.26100
C317        C  0.96638243  0.55806108  0.98150811    -0.11600
C318        C  0.93584606  0.53666783  0.04824719    -0.25600
C319        C  0.90862965  0.57495846  0.09774884     0.37000
C320        C  0.90812445  0.62625962  0.07462907    -0.27200
F321        F  0.01239363  0.62741715  0.41871527    -0.19300
H322        H  0.98216914  0.53621584  0.42868211     0.16300
F323        F  0.87803716  0.56352477  0.16609286    -0.23000
H324        H  0.88242245  0.65182748  0.10782990     0.18200
C325        C  0.58888894  0.00088350  0.51241016    -0.27100
C326        C  0.62531904  0.96248706  0.50013419     0.06500
C327        C  0.60944775  0.91784632  0.46357352     0.26100
C328        C  0.56002277  0.91192555  0.44232361    -0.11600
C329        C  0.51885115  0.94499003  0.46635387    -0.25500
C330        C  0.53777660  0.99267398  0.49052533     0.36900
C331        C  0.68044588  0.96864013  0.51042827     0.06500
F332        F  0.64248954  0.88113625  0.43739350    -0.19300
H333        H  0.55726068  0.88039654  0.39983677     0.16300
F334        F  0.50974606  0.03429192  0.47758983    -0.23000
H335        H  0.60000924  0.03824034  0.53276417     0.18100
C336        C  0.70587867  0.01134801  0.47869868     0.26100
C337        C  0.75848812  0.01059480  0.47344826    -0.11600
C338        C  0.78632334  0.96788765  0.50166483    -0.25600
C339        C  0.76106529  0.92461612  0.03705889     0.37000
C340        C  0.70900665  0.92541721  0.04200867    -0.27200
F341        F  0.68030737  0.05307005  0.45042559    -0.19300
H342        H  0.77751704  0.04345188  0.44786754     0.16300
F343        F  0.78652091  0.88224105  0.06335777    -0.23000
H344        H  0.69068648  0.89221709  0.06792364     0.18200
C345        C  0.17241622  0.00556682  0.00238073    -0.27100
C346        C  0.19910369  0.95895892  0.00209500     0.06500
C347        C  0.17110477  0.91279821  0.51104555     0.26100
C348        C  0.11856332  0.91486081  0.50960802    -0.11600
C349        C  0.09297067  0.96222603  0.00225447    -0.25500
C350        C  0.12001184  0.00715176  0.00522096     0.36900
C351        C  0.25515798  0.95734762  0.00691727     0.06500
F352        F  0.19454335  0.86718612  0.52232802    -0.19300
H353        H  0.09786084  0.88004799  0.51475367     0.16300
F354        F  0.09571118  0.05267508  0.00882752    -0.23000
H355        H  0.19181211  0.04114813  0.99986153     0.18100
C356        C  0.28186313  0.99216047  0.05567722     0.26100
C357        C  0.33388244  0.98762869  0.06134978    -0.11600
C358        C  0.36322523  0.94596922  0.03050952    -0.25600
C359        C  0.33632072  0.92059498  0.96354422     0.37000
C360        C  0.28359929  0.92290237  0.95753463    -0.27200
F361        F  0.25884704  0.03168012  0.09689622    -0.19300
H362        H  0.35022074  0.02280983  0.06935368     0.16300
F363        F  0.35784953  0.88718438  0.91033715    -0.23000
H364        H  0.26533655  0.89822583  0.91163390     0.18200
C365        C  0.89187326  0.30558758  0.48491093    -0.27100
C366        C  0.93673332  0.28309586  0.51221105     0.06500
C367        C  0.97747843  0.31499361  0.52529109     0.26100
C368        C  0.97348268  0.36730771  0.50390229    -0.11600
C369        C  0.93017578  0.39042919  0.47192603    -0.25500
C370        C  0.88733904  0.35762813  0.47160373     0.36900
C371        C  0.93999149  0.22670668  0.52226078     0.06500
F372        F  0.02246469  0.29537864  0.55096962    -0.19300
H373        H  0.00673876  0.38917338  0.49915834     0.16300
F374        F  0.83910760  0.37406938  0.47241181    -0.23000
H375        H  0.85880416  0.28306491  0.47585095     0.18100
C376        C  0.89587478  0.19813525  0.05013982     0.26100
C377        C  0.89636874  0.14529544  0.04406348    -0.11600
C378        C  0.93929509  0.11985107  0.51001065    -0.25600
C379        C  0.98133296  0.14683345  0.48237971     0.37000
C380        C  0.98229574  0.19933998  0.49196523    -0.27200
F381        F  0.85529750  0.22123808  0.08751048    -0.19300
H382        H  0.86387704  0.12468605  0.06626186     0.16300
F383        F  0.02192497  0.12248637  0.44751673    -0.23000
H384        H  0.01624595  0.21812009  0.47437003     0.18200
O385        O  0.91820301  0.89046122  0.94239103    -0.71800
O386        O  0.96175497  0.03952475  0.94533179    -0.72800
O387        O  0.01319995  0.94144802  0.94470931    -0.61400
O388        O  0.86576370  0.98888609  0.94150855    -0.69900
O389        O  0.86645064  0.94278582  0.55585584    -0.69400
O390        O  0.01271967  0.98681729  0.56267759    -0.60700
O391        O  0.91528676  0.03857457  0.56098687    -0.73200
O392        O  0.96254007  0.88993867  0.55923443    -0.71900
Cu393      Cu  0.93975295  0.96530985  0.93883345     1.04600
Cu394      Cu  0.93906684  0.96462923  0.56473465     1.04300
C395        C  0.94098313  0.86522687  0.50007668     0.94400
C396        C  0.93825478  0.06352861  0.00458202     0.93500
C397        C  0.03767911  0.96346758  0.50452341     0.85600
C398        C  0.84159826  0.96561058  0.00004718     0.91900
O399        O  0.48054174  0.52737025  0.94378831    -0.71800
O400        O  0.43036144  0.38188888  0.95098770    -0.72800
O401        O  0.53002050  0.42868263  0.94262115    -0.61400
O402        O  0.38253110  0.48155316  0.95461227    -0.69900
O403        O  0.37792372  0.43460097  0.83998948    -0.69400
O404        O  0.52764495  0.47312473  0.82474147    -0.60700
O405        O  0.47254462  0.37811916  0.83148613    -0.73200
O406        O  0.43161830  0.52719242  0.83092906    -0.71900
Cu407      Cu  0.45611234  0.45493864  0.95272058     1.04600
Cu408      Cu  0.45234617  0.45331387  0.82668192     1.04300
C409        C  0.45677317  0.55167719  0.88538606     0.94400
C410        C  0.44979587  0.35506641  0.89162584     0.93500
C411        C  0.55398820  0.45144482  0.88311280     0.85600
C412        C  0.35546684  0.45936164  0.89949275     0.91900
C413        C  0.42134160  0.93313741  0.56255328    -0.01400
C414        C  0.42166990  0.96105291  0.69316905    -0.01400
C415        C  0.46001495  0.93414765  0.94094306    -0.01400
C416        C  0.45890282  0.96598523  0.81454543    -0.01400
O417        O  0.92124536  0.87979018  0.69804249    -0.71800
O418        O  0.96188661  0.02871334  0.69245326    -0.72800
O419        O  0.01528330  0.93225732  0.69072344    -0.61400
O420        O  0.86768775  0.97633566  0.69813823    -0.69900
O421        O  0.86903569  0.93159465  0.81568398    -0.69400
O422        O  0.01532479  0.98037111  0.80470616    -0.60700
O423        O  0.91728828  0.03036978  0.80980422    -0.73200
O424        O  0.96842609  0.88323424  0.81228395    -0.71900
Cu425      Cu  0.94127798  0.95418221  0.68969516     1.04600
Cu426      Cu  0.94252121  0.95630380  0.81523954     1.04300
C427        C  0.94673113  0.85676113  0.75584149     0.94400
C428        C  0.93980595  0.05472038  0.75069250     0.93500
C429        C  0.03990466  0.95620780  0.74705943     0.85600
C430        C  0.84349592  0.95295776  0.75621103     0.91900
O431        O  0.42990915  0.36640726  0.69481719    -0.71800
O432        O  0.47805742  0.51487619  0.69899008    -0.72800
O433        O  0.38122861  0.46499363  0.69404662    -0.61400
O434        O  0.52608033  0.41317183  0.70373345    -0.69900
O435        O  0.52917262  0.46018047  0.58795892    -0.69400
O436        O  0.38250979  0.42030432  0.57651657    -0.60700
O437        O  0.43493271  0.51661520  0.58114676    -0.73200
O438        O  0.47803974  0.36662776  0.58034678    -0.71900
Cu439      Cu  0.45371503  0.43974101  0.70301391     1.04600
Cu440      Cu  0.45638102  0.44090984  0.57662287     1.04300
C441        C  0.45304655  0.34195329  0.63563495     0.94400
C442        C  0.45652745  0.54118361  0.64031658     0.93500
C443        C  0.35732285  0.44251904  0.63528857     0.85600
C444        C  0.55197613  0.43497731  0.64629616     0.91900
C445        C  0.97455290  0.44010475  0.82234769    -0.01400
C446        C  0.93503925  0.44769186  0.93971244    -0.01400
C447        C  0.97505224  0.47305435  0.69399786    -0.01400
C448        C  0.93552241  0.47652181  0.56973527    -0.01400
C449        C  0.22458847  0.48922738  0.61325680    -0.27100
C450        C  0.19703515  0.44549111  0.63223084     0.06500
C451        C  0.22318215  0.39989238  0.65093335     0.26100
C452        C  0.27578711  0.39881850  0.65122695    -0.11600
C453        C  0.30254275  0.44315301  0.63436301    -0.25500
C454        C  0.27671086  0.48830472  0.61544690     0.36900
C455        C  0.14178693  0.45065436  0.64202159     0.06500
F456        F  0.19823201  0.35703376  0.67137662    -0.19300
H457        H  0.29564796  0.36374641  0.66632784     0.16300
F458        F  0.30199896  0.53120730  0.59657147    -0.23000
H459        H  0.20546914  0.52457726  0.59715412     0.18100
C460        C  0.12311025  0.48971513  0.69359064     0.27700
C461        C  0.07261082  0.49307421  0.71224144    -0.11600
C462        C  0.03435535  0.46313949  0.67109105    -0.25600
C463        C  0.05556013  0.42082926  0.62655751     0.37000
C464        C  0.10768367  0.41569378  0.60917593    -0.27200
F465        F  0.15420873  0.52171635  0.73542391    -0.19300
H466        H  0.06408231  0.51939756  0.76453536     0.16300
F467        F  0.03256694  0.37654369  0.63203471    -0.23000
H468        H  0.12159264  0.38192414  0.57644648     0.18200
C469        C  0.68750667  0.39177130  0.63972473    -0.27100
C470        C  0.71159018  0.43891330  0.64227680     0.06500
C471        C  0.68122582  0.48308391  0.65535629     0.26100
C472        C  0.62959301  0.48071472  0.65472122    -0.11600
C473        C  0.60633226  0.43436721  0.64982369    -0.25500
C474        C  0.63511727  0.38943986  0.64617455     0.36900
C475        C  0.76665036  0.44445867  0.62506092     0.06500
F476        F  0.70082262  0.52937620  0.66981433    -0.19300
H477        H  0.60749697  0.51543909  0.66076101     0.16300
F478        F  0.61254818  0.34379443  0.64354601    -0.23000
H479        H  0.70810654  0.35681424  0.62912893     0.18100
C480        C  0.80409041  0.40783564  0.63815815     0.26100
C481        C  0.85503149  0.41923642  0.62405754    -0.11600
C482        C  0.87456063  0.46715186  0.59564447    -0.25600
C483        C  0.83161541  0.50159249  0.57944025     0.37000
C484        C  0.78197427  0.48893815  0.58834459    -0.27200
F485        F  0.79253000  0.35911490  0.65697003    -0.19300
H486        H  0.87421011  0.38452911  0.62249329     0.16300
F487        F  0.83062249  0.54940425  0.54828131    -0.23000
H488        H  0.75447349  0.51510098  0.56092511     0.18200
C489        C  0.92755263  0.31026054  0.72390222    -0.27100
C490        C  0.95471759  0.27243317  0.76784188     0.06500
C491        C  0.99389719  0.28773486  0.81952688     0.26100
C492        C  0.99793734  0.33840057  0.84151349    -0.11600
C493        C  0.96962417  0.37931485  0.80190205    -0.25500
C494        C  0.94174415  0.36136087  0.73261602     0.36900
C495        C  0.94734326  0.21758150  0.75401409     0.06500
F496        F  0.02989597  0.25437859  0.84633778    -0.19300
H497        H  0.02788228  0.34365121  0.88690723     0.16300
F498        F  0.94646007  0.38750214  0.66059409    -0.23000
H499        H  0.90136010  0.29986285  0.67377310     0.18100
C500        C  0.90504659  0.19326889  0.78825135     0.26100
C501        C  0.90250116  0.14018121  0.78716683    -0.11600
C502        C  0.94177031  0.11075785  0.75070139    -0.25600
C503        C  0.98365851  0.13538429  0.71539217     0.37000
C504        C  0.98642651  0.18812461  0.71761146    -0.27200
F505        F  0.86728874  0.22073503  0.82586314    -0.19300
H506        H  0.86998109  0.12203528  0.81512353     0.16300
F507        F  0.02267226  0.10846098  0.68071780    -0.23000
H508        H  0.01963637  0.20614940  0.69197002     0.18200
C509        C  0.00881765  0.62047691  0.69011375    -0.27100
C510        C  0.97285973  0.64004982  0.74727906     0.06500
C511        C  0.94132739  0.60620776  0.78998906     0.26100
C512        C  0.94841164  0.55333294  0.77984832    -0.11600
C513        C  0.97845760  0.53254021  0.71541425    -0.25500
C514        C  0.00920083  0.56921546  0.66884761     0.36900
C515        C  0.96553548  0.69569700  0.75482025     0.06500
F516        F  0.90232516  0.62483161  0.83770571    -0.19300
H517        H  0.92459296  0.52744347  0.80889490     0.16300
F518        F  0.03893868  0.55634164  0.59978954    -0.23000
H519        H  0.03294736  0.64561444  0.65379631     0.18100
C520        C  0.00673324  0.72712785  0.76881104     0.26100
C521        C  0.00000288  0.77963537  0.77094314    -0.11600
C522        C  0.95252189  0.80159811  0.75634199    -0.25600
C523        C  0.91127413  0.77060833  0.74260519     0.37000
C524        C  0.91763397  0.71804605  0.74354704    -0.27200
F525        F  0.05341574  0.70705423  0.78096678    -0.19300
H526        H  0.03213852  0.80328960  0.78195059     0.16300
F527        F  0.86472838  0.79114877  0.73074888    -0.23000
H528        H  0.88500519  0.69504542  0.73426415     0.18200
C529        C  0.59309686  0.90860053  0.72691970    -0.27100
C530        C  0.62620624  0.94851387  0.74240364     0.06500
C531        C  0.60600914  0.99133898  0.78137409     0.26100
C532        C  0.55639025  0.99357360  0.80541269    -0.11600
C533        C  0.51843255  0.95783418  0.78502161    -0.25500
C534        C  0.54144464  0.91241404  0.75179795     0.36900
C535        C  0.68233637  0.94524687  0.73499887     0.06500
F536        F  0.63539366  0.02969829  0.80857348    -0.19300
H537        H  0.55161076  0.02446946  0.84846510     0.16300
F538        F  0.52023638  0.86772124  0.76720518    -0.23000
H539        H  0.60778298  0.87264322  0.70345633     0.18100
C540        C  0.71052328  0.90290208  0.76476885     0.26100
C541        C  0.76287402  0.90592982  0.77446655    -0.11600
C542        C  0.78815176  0.95055428  0.75234073    -0.25600
C543        C  0.76044769  0.99192650  0.71925950     0.37000
C544        C  0.70863477  0.98901082  0.70998139    -0.27200
F545        F  0.68780745  0.85893458  0.78577704    -0.19300
H546        H  0.78382894  0.87308798  0.79783426     0.16300
F547        F  0.78338914  0.03561905  0.69652910    -0.23000
H548        H  0.68872172  0.02164529  0.68326385     0.18200
C549        C  0.40031371  0.21354466  0.59878945    -0.27100
C550        C  0.44233331  0.18151390  0.61384775     0.06500
C551        C  0.48951882  0.20422373  0.62534468     0.26100
C552        C  0.49270255  0.25674744  0.63281844    -0.11600
C553        C  0.44946506  0.28726915  0.62815731    -0.25500
C554        C  0.40345249  0.26574669  0.60848004     0.36900
C555        C  0.43462212  0.12598514  0.62644708     0.06500
F556        F  0.53273552  0.17662045  0.63026350    -0.19300
H557        H  0.52890372  0.27362374  0.64347024     0.16300
F558        F  0.36183537  0.29533182  0.59667065    -0.23000
H559        H  0.36446214  0.19815577  0.58085927     0.18100
C560        C  0.39156873  0.10949601  0.66942961     0.26100
C561        C  0.38491440  0.05860255  0.68682632    -0.11600
C562        C  0.42152874  0.01957592  0.66632435    -0.25600
C563        C  0.46450964  0.03731019  0.62669044     0.37000
C564        C  0.47095322  0.08908804  0.60463723    -0.27200
F565        F  0.35570689  0.14244805  0.69912666    -0.19300
H566        H  0.34687979  0.05268232  0.70478116     0.16300
F567        F  0.50546427  0.00760521  0.63644727    -0.23000
H568        H  0.50647074  0.10040384  0.57764510     0.18200
C569        C  0.17480770  0.99676893  0.73823121    -0.27100
C570        C  0.20063993  0.95011081  0.74815337     0.06500
C571        C  0.17235391  0.90571485  0.75869003     0.26100
C572        C  0.12003692  0.90810486  0.75617316    -0.11600
C573        C  0.09483739  0.95468842  0.74702495    -0.25500
C574        C  0.12238684  0.99917237  0.73927192     0.36900
C575        C  0.25659644  0.94809646  0.74617943     0.06500
F576        F  0.19481686  0.86011680  0.77467161    -0.19300
H577        H  0.09903209  0.87360148  0.76392528     0.16300
F578        F  0.09862290  0.04470138  0.73006897    -0.23000
H579        H  0.19511080  0.03148535  0.72850385     0.18100
C580        C  0.28532648  0.98386996  0.78951844     0.26100
C581        C  0.33784535  0.98060071  0.78625605    -0.11600
C582        C  0.36465855  0.94844400  0.72849052    -0.25600
C583        C  0.33489719  0.90545829  0.70666432     0.37000
C584        C  0.28247058  0.90796155  0.70646025    -0.27200
F585        F  0.26321562  0.02151919  0.83706457    -0.19300
H586        H  0.35590446  0.00961446  0.81920957     0.16300
F587        F  0.35176303  0.85742437  0.71562057    -0.23000
H588        H  0.26251373  0.87629111  0.67976993     0.18200
C589        C  0.49207706  0.68121939  0.62252043    -0.27100
C590        C  0.44533425  0.70652157  0.63504003     0.06500
C591        C  0.40379818  0.67583104  0.65609104     0.26100
C592        C  0.40820787  0.62267022  0.65809807    -0.11600
C593        C  0.45422160  0.59786443  0.64224850    -0.25500
C594        C  0.49649701  0.62772550  0.62590582     0.36900
C595        C  0.43834609  0.76355344  0.62103033     0.06500
F596        F  0.35861171  0.69705258  0.67694360    -0.19300
H597        H  0.37531760  0.60062862  0.67289878     0.16300
F598        F  0.54176012  0.60514379  0.61010391    -0.23000
H599        H  0.52535982  0.70238784  0.60819718     0.18100
C600        C  0.47298376  0.80035328  0.64667410     0.26100
C601        C  0.46343795  0.85322188  0.63072135    -0.11600
C602        C  0.42123518  0.87287000  0.58770542    -0.25600
C603        C  0.38522724  0.83384884  0.56709888     0.37000
C604        C  0.39512406  0.78197348  0.57992274    -0.27200
F605        F  0.51770266  0.78535537  0.68088542    -0.19300
H606        H  0.49335527  0.87931214  0.63384807     0.16300
F607        F  0.33553965  0.84225541  0.55670097    -0.23000
H608        H  0.36655259  0.75589453  0.56009092     0.18200
C609        C  0.80074255  0.51015977  0.88134541    -0.27100
C610        C  0.77362972  0.46641738  0.86348478     0.06500
C611        C  0.80263934  0.42460963  0.83634179     0.26100
C612        C  0.85550114  0.42523148  0.84102150    -0.11600
C613        C  0.88065928  0.46080440  0.89447307    -0.25500
C614        C  0.85317133  0.50748169  0.89539808     0.36900
C615        C  0.71699477  0.46371687  0.87433973     0.06500
F616        F  0.78051756  0.38066692  0.81437385    -0.19300
H617        H  0.87324156  0.39063156  0.82208867     0.16300
F618        F  0.87467043  0.55136667  0.91479326    -0.23000
H619        H  0.78181285  0.54575891  0.89482681     0.18100
C620        C  0.68478875  0.50573487  0.85765958     0.26100
C621        C  0.63241379  0.50088327  0.86057186    -0.11600
C622        C  0.60997151  0.45498366  0.88339510    -0.25600
C623        C  0.64152607  0.41399735  0.90707530     0.37000
C624        C  0.69412174  0.41842136  0.90278390    -0.27200
F625        F  0.70314589  0.55129877  0.83377651    -0.19300
H626        H  0.60916046  0.53334266  0.84361449     0.16300
F627        F  0.62166553  0.36915841  0.93188746    -0.23000
H628        H  0.71684279  0.38612191  0.92289320     0.18200
C629        C  0.48902418  0.21794604  0.91202807    -0.27100
C630        C  0.44409934  0.19244097  0.89528771     0.06500
C631        C  0.39997328  0.22144085  0.88160736     0.26100
C632        C  0.40155398  0.27468641  0.88193795    -0.11600
C633        C  0.44724361  0.29944400  0.89400523    -0.25500
C634        C  0.49083744  0.27071241  0.90964904     0.36900
C635        C  0.44632792  0.13679903  0.87850529     0.06500
F636        F  0.35603968  0.19848961  0.86406984    -0.19300
H637        H  0.36748784  0.29659809  0.87017767     0.16300
F638        F  0.53515164  0.29381320  0.92369126    -0.23000
H639        H  0.52337908  0.19670612  0.92472003     0.18100
C640        C  0.48230116  0.11822248  0.82140757     0.26100
C641        C  0.48324464  0.06770743  0.79751748    -0.11600
C642        C  0.45426015  0.02797291  0.83697044    -0.25600
C643        C  0.42087441  0.04905763  0.89926840     0.37000
C644        C  0.41424872  0.10157140  0.91637732    -0.27200
F645        F  0.51681717  0.14921196  0.78555437    -0.19300
H646        H  0.51161843  0.06216472  0.74935420     0.16300
F647        F  0.39396816  0.01834032  0.94472286    -0.23000
H648        H  0.38579712  0.11405370  0.96265826     0.18200
C649        C  0.50389163  0.68299005  0.85830498    -0.27100
C650        C  0.45958736  0.71131885  0.87191694     0.06500
C651        C  0.41385626  0.68668362  0.88408004     0.26100
C652        C  0.41318008  0.63410374  0.88746808    -0.11600
C653        C  0.45803327  0.60622039  0.87995943    -0.25500
C654        C  0.50329201  0.63054948  0.86357165     0.36900
C655        C  0.46235088  0.76593716  0.88436929     0.06500
F656        F  0.37046290  0.71335681  0.89679258    -0.19300
H657        H  0.37799038  0.61513469  0.89851348     0.16300
F658        F  0.54658824  0.60368796  0.85195062    -0.23000
H659        H  0.53916452  0.70164956  0.84643498     0.18100
C660        C  0.49589333  0.78538785  0.94350917     0.26100
C661        C  0.49307045  0.83625390  0.96450475    -0.11600
C662        C  0.46240545  0.87329775  0.91961857    -0.25600
C663        C  0.43679895  0.85126774  0.85047531     0.37000
C664        C  0.43167632  0.79929487  0.83862557    -0.27200
F665        F  0.52997031  0.75521569  0.98507304    -0.19300
H666        H  0.51939035  0.84570226  0.01430167     0.16300
F667        F  0.42228799  0.87995293  0.78666929    -0.23000
H668        H  0.40719320  0.78544461  0.78818631     0.18200
C669        C  0.21864832  0.50317478  0.90174861    -0.27100
C670        C  0.19424560  0.45734090  0.91851284     0.06500
C671        C  0.22395016  0.41325897  0.93368227     0.26100
C672        C  0.27613759  0.41444561  0.92629255    -0.11600
C673        C  0.30025584  0.45976515  0.90705569    -0.25500
C674        C  0.27134855  0.50449927  0.89665377     0.36900
C675        C  0.13919073  0.45248642  0.90378811     0.06500
F676        F  0.20226458  0.36859723  0.95458186    -0.19300
H677        H  0.29791826  0.37988667  0.93658335     0.16300
F678        F  0.29397590  0.54896334  0.87841273    -0.23000
H679        H  0.19692218  0.53746012  0.88929197     0.18100
C680        C  0.10116888  0.48228796  0.94246747     0.26100
C681        C  0.04994222  0.47136027  0.92724921    -0.11600
C682        C  0.03352552  0.44080705  0.85675360    -0.25600
C683        C  0.07525796  0.40935953  0.82365766     0.37000
C684        C  0.12463365  0.41454302  0.84867701    -0.27200
F685        F  0.11314852  0.51842265  0.00107650    -0.19300
H686        H  0.02505896  0.48116951  0.97930098     0.16300
F687        F  0.07201496  0.37090010  0.76686639    -0.23000
H688        H  0.15272159  0.38996112  0.81852370     0.18200
C689        C  0.98828900  0.72884479  0.52244070    -0.27100
C690        C  0.94549937  0.70145886  0.50046592     0.06500
C691        C  0.90205444  0.72846974  0.47388938     0.26100
C692        C  0.90130271  0.78161252  0.47117018    -0.11600
C693        C  0.94324184  0.80897795  0.49757681    -0.25500
C694        C  0.98704094  0.78205984  0.52224183     0.36900
C695        C  0.94393321  0.64560335  0.51537280     0.06500
F696        F  0.85997869  0.70336739  0.45187595    -0.19300
H697        H  0.86729964  0.80145788  0.45118661     0.16300
F698        F  0.02961983  0.80596780  0.04242087    -0.23000
H699        H  0.02178177  0.70792633  0.04182972     0.18100
C700        C  0.97553752  0.61083871  0.47259874     0.26100
C701        C  0.96700584  0.55825860  0.48033243    -0.11600
C702        C  0.93709166  0.53692486  0.54835813    -0.25600
C703        C  0.91064319  0.57535562  0.59855807     0.37000
C704        C  0.90982143  0.62659243  0.57513039    -0.27200
F705        F  0.01230685  0.62715542  0.92137343    -0.19300
H706        H  0.98240641  0.53604759  0.93086112     0.16300
F707        F  0.88104664  0.56406754  0.66824505    -0.23000
H708        H  0.88439547  0.65214575  0.60892486     0.18200
C709        C  0.58884445  0.00020334  0.01478482    -0.27100
C710        C  0.62525897  0.96181640  0.00197414     0.06500
C711        C  0.60940714  0.91759381  0.96376384     0.26100
C712        C  0.55984822  0.91157904  0.94300551    -0.11600
C713        C  0.51879669  0.94484536  0.96691956    -0.25500
C714        C  0.53782890  0.99236967  0.99178957     0.36900
C715        C  0.68043435  0.96770261  0.01316748     0.06500
F716        F  0.64261813  0.88157933  0.93542370    -0.19300
H717        H  0.55681959  0.88007663  0.90045942     0.16300
F718        F  0.50999439  0.03418854  0.97876148    -0.23000
H719        H  0.59995115  0.03735715  0.03622594     0.18100
C720        C  0.70604399  0.01076039  0.98339857     0.26100
C721        C  0.75865077  0.00981662  0.97779572    -0.11600
C722        C  0.78640142  0.96657286  0.00375151    -0.25600
C723        C  0.76110565  0.92620725  0.53615647     0.37000
C724        C  0.70910636  0.92679646  0.54064459    -0.27200
F725        F  0.68063106  0.05303728  0.95718076    -0.19300
H726        H  0.77776604  0.04295477  0.95356720     0.16300
F727        F  0.78665786  0.88437241  0.56462048    -0.23000
H728        H  0.69092312  0.89384712  0.56779550     0.18200
C729        C  0.17262301  0.00414387  0.49605630    -0.27100
C730        C  0.19893888  0.95758511  0.50401554     0.06500
C731        C  0.17147934  0.91386651  0.99908752     0.26100
C732        C  0.11898442  0.91573916  0.99713401    -0.11600
C733        C  0.09285530  0.96157022  0.50481558    -0.25500
C734        C  0.12020253  0.00623463  0.49875203     0.36900
C735        C  0.25494714  0.95589696  0.50747850     0.06500
F736        F  0.19493702  0.86782844  0.00102365    -0.19300
H737        H  0.09852619  0.88069627  0.99454254     0.16300
F738        F  0.09614153  0.05183772  0.49345134    -0.23000
H739        H  0.19245836  0.03918772  0.48719596     0.18100
C740        C  0.28189921  0.99188260  0.55286949     0.26100
C741        C  0.33384948  0.98688779  0.55952673    -0.11600
C742        C  0.36320175  0.94483885  0.53018576    -0.25600
C743        C  0.33580286  0.91797336  0.46530596     0.37000
C744        C  0.28296412  0.92008801  0.46040806    -0.27200
F745        F  0.25893206  0.03261730  0.59057745    -0.19300
H746        H  0.35041387  0.02170401  0.56958007     0.16300
F747        F  0.35677102  0.88289336  0.41452520    -0.23000
H748        H  0.26415644  0.89413034  0.41732052     0.18200
C749        C  0.88989785  0.30622206  0.98729083    -0.27100
C750        C  0.93471685  0.28286716  0.01289218     0.06500
C751        C  0.97595691  0.31433656  0.02578777     0.26100
C752        C  0.97273633  0.36655983  0.00359244    -0.11600
C753        C  0.92971652  0.39018170  0.97210903    -0.25500
C754        C  0.88619744  0.35834716  0.97442421     0.36900
C755        C  0.93756615  0.22624597  0.02137706     0.06500
F756        F  0.02048631  0.29456613  0.05330694    -0.19300
H757        H  0.00614336  0.38820965  0.99839791     0.16300
F758        F  0.83831954  0.37591488  0.97560809    -0.23000
H759        H  0.85633598  0.28445081  0.97855131     0.18100
C760        C  0.89880821  0.19905595  0.55405479     0.26100
C761        C  0.89878217  0.14624277  0.54838289    -0.11600
C762        C  0.93817893  0.11919805  0.00961813    -0.25600
C763        C  0.98072766  0.14650456  0.98580293     0.37000
C764        C  0.98069950  0.19911633  0.99389435    -0.27200
F765        F  0.85908222  0.22278007  0.59304175    -0.19300
H766        H  0.86672253  0.12594754  0.57327168     0.16300
F767        F  0.02303517  0.12231387  0.95742698    -0.23000
H768        H  0.01483730  0.21805142  0.97810715     0.18200
loop_ 
_geom_bond_atom_site_label_1 
_geom_bond_atom_site_label_2 
_geom_bond_distance 
_geom_bond_site_symmetry_2 
_ccdc_geom_bond_type 
O1           Cu9   2.071       .  S
O1          C395   1.264       .  A
O2           Cu9   2.056   1_545  S
O2           C12   1.265       .  A
O3           Cu9   2.052   1_455  S
O3          C397   1.260       .  A
O4           Cu9   2.057       .  S
O4           C14   1.262       .  A
O5          Cu10   2.038       .  S
O5          C398   1.263       .  A
O6          Cu10   2.059   1_455  S
O6           C13   1.264       .  A
O7          Cu10   2.046   1_545  S
O7          C396   1.262       .  A
O8          Cu10   2.061       .  S
O8           C11   1.264   1_554  A
Cu9        Cu394   1.920       .  S
Cu10       Cu393   1.919   1_554  S
C11         O385   1.264       .  A
C11         C309   1.484       .  S
C12         O391   1.262       .  A
C12         C378   1.472       .  S
C13         O387   1.260   1_554  A
C13         C349   1.471       .  S
C14         O389   1.262       .  A
C14         C338   1.470       .  S
O15         Cu23   2.029       .  S
O15          C25   1.262       .  A
O16         Cu23   2.053       .  S
O16          C26   1.256       .  A
O17         Cu23   2.078       .  S
O17          C27   1.264       .  A
O18         Cu23   2.073       .  S
O18          C28   1.265       .  A
O19         Cu24   2.062       .  S
O19          C28   1.264       .  A
O20         Cu24   2.084       .  S
O20          C27   1.266       .  A
O21         Cu24   2.052       .  S
O21          C26   1.260       .  A
O22         Cu24   2.020       .  S
O22          C25   1.260       .  A
Cu23        Cu24   1.932       .  S
C25         C269   1.440       .  S
C26         C249   1.471       .  S
C27         C238   1.496       .  S
C28         C289   1.476       .  S
C29          C30   2.131       .  S
C29         C415   2.123   1_554  S
C29         C218   1.628       .  S
C29         C358   1.648       .  S
C30          C32   2.111       .  S
C30         C178   1.597   1_565  S
C30         C198   1.652       .  S
C31          C32   2.104       .  S
C31         C413   2.122       .  S
C31         C278   1.639       .  S
C31         C329   1.648       .  S
C32         C149   1.657       .  S
C32         C258   1.678   1_565  S
O33         Cu41   2.044       .  S
O33          C43   1.264       .  A
O34         Cu41   2.048   1_545  S
O34          C44   1.263       .  A
O35         Cu41   2.048   1_455  S
O35          C45   1.264       .  A
O36         Cu41   2.042       .  S
O36          C46   1.261       .  A
O37         Cu42   2.070       .  S
O37          C46   1.262       .  A
O38         Cu42   2.056   1_455  S
O38          C45   1.263       .  A
O39         Cu42   2.062   1_545  S
O39          C44   1.263       .  A
O40         Cu42   2.041       .  S
O40          C43   1.262       .  A
Cu41        Cu42   1.924       .  S
C43         C138   1.463       .  S
C44         C118   1.482       .  S
C45         C189   1.466       .  S
C46         C158   1.477       .  S
O47         Cu55   2.057       .  S
O47          C57   1.265       .  A
O48         Cu55   2.094       .  S
O48          C58   1.265       .  A
O49         Cu55   2.038       .  S
O49          C59   1.260       .  A
O50         Cu55   2.038       .  S
O50          C60   1.258       .  A
O51         Cu56   2.024       .  S
O51          C60   1.262       .  A
O52         Cu56   2.058       .  S
O52          C59   1.260       .  A
O53         Cu56   2.071       .  S
O53          C58   1.263       .  A
O54         Cu56   2.046       .  S
O54          C57   1.261       .  A
Cu55        Cu56   1.931       .  S
C57         C169   1.461       .  S
C58         C209   1.495       .  S
C59          C69   1.463       .  S
C60          C89   1.449       .  S
C61          C62   2.082       .  S
C61          C63   2.141       .  S
C61         C109   1.644       .  S
C61         C298   1.661   1_655  S
C62         C448   2.120       .  S
C62         C229   1.640       .  S
C62         C369   1.603       .  S
C63          C64   2.179       .  S
C63          C78   1.637   1_655  S
C63         C129   1.608       .  S
C64         C446   2.124   1_554  S
C64          C98   1.692       .  S
C64         C318   1.625       .  S
C65          C66   1.407       .  A
C65          C70   1.392       .  A
C65          H75   1.083       .  S
C66          C71   1.485       .  S
C66          C67   1.409       .  A
C67          C68   1.402       .  A
C67          F72   1.357       .  S
C68          C69   1.403       .  A
C68          H73   1.083       .  S
C69          C70   1.397       .  A
C70          F74   1.357       .  S
C71          C76   1.384       .  A
C71          C80   1.402       .  A
C76          C77   1.379       .  A
C76          F81   1.357       .  S
C77          C78   1.451       .  A
C77          H82   1.082       .  S
C78          C79   1.419       .  A
C79          C80   1.418       .  A
C79          F83   1.331       .  S
C80          H84   1.083       .  S
C85          C86   1.408       .  A
C85          C90   1.402       .  A
C85          H95   1.080       .  S
C86          C91   1.491       .  S
C86          C87   1.418       .  A
C87          C88   1.381       .  A
C87          F92   1.357       .  S
C88          C89   1.386       .  A
C88          H93   1.084       .  S
C89          C90   1.403       .  A
C90          F94   1.357       .  S
C91          C96   1.387       .  A
C91         C100   1.366       .  A
C96          C97   1.411       .  A
C96         F101   1.358       .  S
C97          C98   1.440       .  A
C97         H102   1.038       .  S
C98          C99   1.471       .  A
C99         C100   1.377       .  A
C99         F103   1.346       .  S
C100        H104   1.085       .  S
C105        C106   1.393       .  A
C105        C110   1.415       .  A
C105        H115   1.079       .  S
C106        C111   1.481       .  S
C106        C107   1.379       .  A
C107        C108   1.387       .  A
C107        F112   1.354   1_655  S
C108        C109   1.439       .  A
C108        H113   1.071   1_655  S
C109        C110   1.385       .  A
C110        F114   1.305       .  S
C111        C116   1.405       .  A
C111        C120   1.403       .  A
C116        C117   1.405       .  A
C116        F121   1.357       .  S
C117        C118   1.407       .  A
C117        H122   1.083       .  S
C118        C119   1.406       .  A
C119        C120   1.396       .  A
C119        F123   1.357   1_655  S
C120        H124   1.083   1_655  S
C125        C126   1.387   1_455  A
C125        C130   1.391       .  A
C125        H135   1.082       .  S
C126        C131   1.484       .  S
C126        C127   1.397       .  A
C127        C128   1.415       .  A
C127        F132   1.354       .  S
C128        C129   1.379       .  A
C128        H133   1.038       .  S
C129        C130   1.459   1_655  A
C130        F134   1.358       .  S
C131        C136   1.407   1_655  A
C131        C140   1.407       .  A
C136        C137   1.395   1_455  A
C136        F141   1.357       .  S
C137        C138   1.401       .  A
C137        H142   1.083   1_655  S
C138        C139   1.400       .  A
C139        C140   1.395       .  A
C139        F143   1.358       .  S
C140        H144   1.080       .  S
C145        C146   1.408       .  A
C145        C150   1.428       .  A
C145        H155   1.082       .  S
C146        C151   1.500       .  S
C146        C147   1.379       .  A
C147        C148   1.370       .  A
C147        F152   1.358   1_565  S
C148        C149   1.431       .  A
C148        H153   1.055   1_565  S
C149        C150   1.429       .  A
C150        F154   1.335       .  S
C151        C156   1.411       .  A
C151        C160   1.412       .  A
C156        C157   1.407       .  A
C156        F161   1.355       .  S
C157        C158   1.407       .  A
C157        H162   1.083       .  S
C158        C159   1.400       .  A
C159        C160   1.391       .  A
C159        F163   1.358   1_565  S
C160        H164   1.083   1_565  S
C165        C166   1.411       .  A
C165        C170   1.392       .  A
C165        H175   1.081       .  S
C166        C171   1.502       .  S
C166        C167   1.418       .  A
C167        C168   1.398       .  A
C167        F172   1.355       .  S
C168        C169   1.397       .  A
C168        H173   1.083       .  S
C169        C170   1.396       .  A
C170        F174   1.357       .  S
C171        C176   1.398       .  A
C171        C180   1.403       .  A
C176        C177   1.385       .  A
C176        F181   1.358       .  S
C177        C178   1.441       .  A
C177        H182   1.064       .  S
C178        C179   1.380       .  A
C179        C180   1.419       .  A
C179        F183   1.341       .  S
C180        H184   1.076       .  S
C185        C186   1.409       .  A
C185        C190   1.399   1_565  A
C185        H195   1.082   1_565  S
C186        C191   1.493       .  S
C186        C187   1.412       .  A
C187        C188   1.397       .  A
C187        F192   1.357       .  S
C188        C189   1.398       .  A
C188        H193   1.083       .  S
C189        C190   1.401   1_565  A
C190        F194   1.357       .  S
C191        C196   1.396       .  A
C191        C200   1.395       .  A
C196        C197   1.402       .  A
C196        F201   1.358   1_565  S
C197        C198   1.410       .  A
C197        H202   1.039   1_565  S
C198        C199   1.439       .  A
C199        C200   1.401       .  A
C199        F203   1.344       .  S
C200        H204   1.081       .  S
C205        C206   1.416       .  A
C205        C210   1.414       .  A
C205        H215   1.079       .  S
C206        C211   1.525       .  S
C206        C207   1.417       .  A
C207        C208   1.405       .  A
C207        F212   1.357       .  S
C208        C209   1.401       .  A
C208        H213   1.083       .  S
C209        C210   1.407       .  A
C210        F214   1.357       .  S
C211        C216   1.408       .  A
C211        C220   1.395       .  A
C216        C217   1.431       .  A
C216        F221   1.356       .  S
C217        C218   1.394       .  A
C217        H222   1.063       .  S
C218        C219   1.456       .  A
C219        C220   1.403       .  A
C219        F223   1.348       .  S
C220        H224   1.082       .  S
C225        C226   1.400       .  A
C225        C230   1.416       .  A
C225        H235   1.079       .  S
C226        C231   1.520       .  S
C226        C227   1.399       .  A
C227        C228   1.413       .  A
C227        F232   1.353       .  S
C228        C229   1.423       .  A
C228        H233   1.062       .  S
C229        C230   1.424       .  A
C230        F234   1.336       .  S
C231        C236   1.414       .  A
C231        C240   1.417       .  A
C236        C237   1.406       .  A
C236        F241   1.355       .  S
C237        C238   1.404       .  A
C237        H242   1.079       .  S
C238        C239   1.404       .  A
C239        C240   1.409       .  A
C239        F243   1.357       .  S
C240        H244   1.081       .  S
C245        C246   1.409       .  A
C245        C250   1.396       .  A
C245        H255   1.083       .  S
C246        C251   1.490       .  S
C246        C247   1.407       .  A
C247        C248   1.406       .  A
C247        F252   1.356       .  S
C248        C249   1.405       .  A
C248        H253   1.083       .  S
C249        C250   1.398       .  A
C250        F254   1.357       .  S
C251        C256   1.377       .  A
C251        C260   1.396       .  A
C256        C257   1.384       .  A
C256        F261   1.355       .  S
C257        C258   1.444       .  A
C257        H262   1.062       .  S
C258        C259   1.409       .  A
C259        C260   1.419       .  A
C259        F263   1.290       .  S
C260        H264   1.082       .  S
C265        C266   1.401       .  A
C265        C270   1.386       .  A
C265        H275   1.084       .  S
C266        C271   1.456       .  S
C266        C267   1.403       .  A
C267        C268   1.388       .  A
C267        F272   1.356       .  S
C268        C269   1.396       .  A
C268        H273   1.084       .  S
C269        C270   1.398       .  A
C270        F274   1.354       .  S
C271        C276   1.379       .  A
C271        C280   1.382       .  A
C276        C277   1.380       .  A
C276        F281   1.356       .  S
C277        C278   1.438       .  A
C277        H282   1.070       .  S
C278        C279   1.394       .  A
C279        C280   1.395       .  A
C279        F283   1.288       .  S
C280        H284   1.082       .  S
C285        C286   1.406       .  A
C285        C290   1.407       .  A
C285        H295   1.082       .  S
C286        C291   1.494       .  S
C286        C287   1.415       .  A
C287        C288   1.397       .  A
C287        F292   1.358       .  S
C288        C289   1.398       .  A
C288        H293   1.084       .  S
C289        C290   1.407       .  A
C290        F294   1.356       .  S
C291        C296   1.402       .  A
C291        C300   1.373       .  A
C296        C297   1.421       .  A
C296        F301   1.354       .  S
C297        C298   1.425       .  A
C297        H302   1.062       .  S
C298        C299   1.465       .  A
C299        C300   1.383       .  A
C299        F303   1.342       .  S
C300        H304   1.084       .  S
C305        C306   1.404       .  A
C305        C310   1.403       .  A
C305        H699   1.082   1_655  S
C306        C311   1.490       .  S
C306        C307   1.409   1_554  A
C307        C308   1.402       .  A
C307        F312   1.358       .  S
C308        C309   1.404       .  A
C308        H313   1.083       .  S
C309        C310   1.408   1_556  A
C310        F698   1.357   1_655  S
C311        C316   1.396   1_554  A
C311        C320   1.385       .  A
F314        C694   1.357   1_455  S
H315        C689   1.082   1_455  S
C316        C317   1.412       .  A
C316        F705   1.356   1_655  S
C317        C318   1.423   1_556  A
C317        H706   1.054       .  S
C318        C319   1.447       .  A
C319        C320   1.398       .  A
C319        F323   1.358       .  S
C320        H324   1.079       .  S
F321        C700   1.356   1_455  S
H322        C701   1.057       .  S
C325        C326   1.404   1_545  A
C325        C330   1.425   1_545  A
C325        H335   1.082       .  S
C326        C331   1.491       .  S
C326        C327   1.380       .  A
C327        C328   1.370       .  A
C327        F332   1.358       .  S
C328        C329   1.437       .  A
C328        H333   1.061       .  S
C329        C330   1.415       .  A
C330        F334   1.332   1_565  S
C331        C336   1.409   1_565  A
C331        C724   1.409       .  A
C336        C337   1.404       .  A
C336        F341   1.355       .  S
C337        C338   1.406   1_545  A
C337        H342   1.083       .  S
C338        C723   1.399       .  A
C339        C340   1.389       .  A
C339        C722   1.400       .  A
C339        F343   1.358       .  S
C340        C715   1.410       .  A
C340        H344   1.083       .  S
C345        C346   1.410   1_545  A
C345        C350   1.397       .  A
C345        H355   1.081   1_554  S
C346        C351   1.496       .  S
C346        C731   1.412   1_554  A
C347        C348   1.401       .  A
C347        C730   1.410       .  A
C347        F352   1.357       .  S
C348        C733   1.402       .  A
C348        H353   1.083       .  S
C349        C350   1.400   1_565  A
C349        C732   1.401   1_554  A
C350        F354   1.356       .  S
C351        C356   1.393       .  A
C351        C360   1.395   1_554  A
C356        C357   1.393       .  A
C356        F361   1.357   1_565  S
C357        C358   1.419       .  A
C357        H362   1.041   1_565  S
C358        C359   1.428   1_554  A
C359        C360   1.409       .  A
C359        F363   1.323       .  S
C360        H364   1.082       .  S
C365        C366   1.391       .  A
C365        C370   1.391       .  A
C365        H375   1.082       .  S
C366        C371   1.497       .  S
C366        C367   1.402       .  A
C367        C368   1.420       .  A
C367        F372   1.357   1_655  S
C368        C369   1.386       .  A
C368        H373   1.068   1_655  S
C369        C370   1.445       .  A
C370        F374   1.350       .  S
C371        C380   1.406       .  A
C371        C760   1.412       .  A
C376        C377   1.398       .  A
C376        C755   1.415       .  A
C376        F381   1.357       .  S
C377        C762   1.401       .  A
C377        H382   1.083       .  S
C378        C379   1.401       .  A
C378        C761   1.402       .  A
C379        C380   1.395       .  A
C379        F383   1.357   1_655  S
C380        H384   1.072   1_655  S
O385       Cu393   2.068       .  S
O386       Cu393   2.058   1_545  S
O386        C396   1.264   1_556  A
O387       Cu393   2.048   1_455  S
O388       Cu393   2.058       .  S
O388        C398   1.264   1_556  A
O389       Cu394   2.035       .  S
O390       Cu394   2.059   1_455  S
O390        C397   1.263       .  A
O391       Cu394   2.042   1_545  S
O392       Cu394   2.060       .  S
O392        C395   1.263       .  A
C395        C693   1.485       .  S
C396        C762   1.472       .  S
C397        C733   1.471       .  S
C398        C722   1.472       .  S
O399       Cu407   2.035       .  S
O399        C409   1.263       .  A
O400       Cu407   2.059       .  S
O400        C410   1.257       .  A
O401       Cu407   2.082       .  S
O401        C411   1.265       .  A
O402       Cu407   2.072       .  S
O402        C412   1.264       .  A
O403       Cu408   2.062       .  S
O403        C412   1.264       .  A
O404       Cu408   2.083       .  S
O404        C411   1.266       .  A
O405       Cu408   2.048       .  S
O405        C410   1.259       .  A
O406       Cu408   2.018       .  S
O406        C409   1.259       .  A
Cu407      Cu408   1.930       .  S
C409        C653   1.443       .  S
C410        C633   1.471       .  S
C411        C622   1.497       .  S
C412        C673   1.476       .  S
C413        C414   2.130       .  S
C413        C602   1.635       .  S
C413        C742   1.653       .  S
C414        C416   2.113       .  S
C414        C562   1.597   1_565  S
C414        C582   1.649       .  S
C415        C416   2.103       .  S
C415        C662   1.640       .  S
C415        C713   1.648       .  S
C416        C533   1.658       .  S
C416        C642   1.675   1_565  S
O417       Cu425   2.047       .  S
O417        C427   1.264       .  A
O418       Cu425   2.053   1_545  S
O418        C428   1.263       .  A
O419       Cu425   2.046   1_455  S
O419        C429   1.263       .  A
O420       Cu425   2.041       .  S
O420        C430   1.260       .  A
O421       Cu426   2.076       .  S
O421        C430   1.263       .  A
O422       Cu426   2.058   1_455  S
O422        C429   1.263       .  A
O423       Cu426   2.058   1_545  S
O423        C428   1.262       .  A
O424       Cu426   2.038       .  S
O424        C427   1.261       .  A
Cu425      Cu426   1.920       .  S
C427        C522   1.461       .  S
C428        C502   1.481       .  S
C429        C573   1.464       .  S
C430        C542   1.479       .  S
O431       Cu439   2.052       .  S
O431        C441   1.265       .  A
O432       Cu439   2.098       .  S
O432        C442   1.265       .  A
O433       Cu439   2.038       .  S
O433        C443   1.260       .  A
O434       Cu439   2.041       .  S
O434        C444   1.258       .  A
O435       Cu440   2.023       .  S
O435        C444   1.262       .  A
O436       Cu440   2.052       .  S
O436        C443   1.259       .  A
O437       Cu440   2.070       .  S
O437        C442   1.262       .  A
O438       Cu440   2.035       .  S
O438        C441   1.260       .  A
Cu439      Cu440   1.932       .  S
C441        C553   1.453       .  S
C442        C593   1.497       .  S
C443        C453   1.460       .  S
C444        C473   1.450       .  S
C445        C446   2.084       .  S
C445        C447   2.142       .  S
C445        C493   1.644       .  S
C445        C682   1.661   1_655  S
C446        C613   1.640       .  S
C446        C753   1.603       .  S
C447        C448   2.177       .  S
C447        C462   1.634   1_655  S
C447        C513   1.609       .  S
C448        C482   1.693       .  S
C448        C702   1.627       .  S
C449        C450   1.408       .  A
C449        C454   1.390       .  A
C449        H459   1.083       .  S
C450        C455   1.484       .  S
C450        C451   1.409       .  A
C451        C452   1.402       .  A
C451        F456   1.357       .  S
C452        C453   1.404       .  A
C452        H457   1.083       .  S
C453        C454   1.396       .  A
C454        F458   1.357       .  S
C455        C460   1.384       .  A
C455        C464   1.403       .  A
C460        C461   1.376       .  A
C460        F465   1.358       .  S
C461        C462   1.449       .  A
C461        H466   1.082       .  S
C462        C463   1.418       .  A
C463        C464   1.418       .  A
C463        F467   1.332       .  S
C464        H468   1.083       .  S
C469        C470   1.411       .  A
C469        C474   1.402       .  A
C469        H479   1.078       .  S
C470        C475   1.500       .  S
C470        C471   1.422       .  A
C471        C472   1.379       .  A
C471        F476   1.357       .  S
C472        C473   1.384       .  A
C472        H477   1.085       .  S
C473        C474   1.402       .  A
C474        F478   1.357       .  S
C475        C480   1.392       .  A
C475        C484   1.367       .  A
C480        C481   1.412       .  A
C480        F485   1.357       .  S
C481        C482   1.441       .  A
C481        H486   1.041       .  S
C482        C483   1.470       .  A
C483        C484   1.377       .  A
C483        F487   1.347       .  S
C484        H488   1.083       .  S
C489        C490   1.395       .  A
C489        C494   1.414       .  A
C489        H499   1.079       .  S
C490        C495   1.481       .  S
C490        C491   1.380       .  A
C491        C492   1.386       .  A
C491        F496   1.354   1_655  S
C492        C493   1.439       .  A
C492        H497   1.071   1_655  S
C493        C494   1.386       .  A
C494        F498   1.303       .  S
C495        C500   1.405       .  A
C495        C504   1.403       .  A
C500        C501   1.404       .  A
C500        F505   1.357       .  S
C501        C502   1.407       .  A
C501        H506   1.083       .  S
C502        C503   1.406       .  A
C503        C504   1.396       .  A
C503        F507   1.356   1_655  S
C504        H508   1.083   1_655  S
C509        C510   1.388   1_455  A
C509        C514   1.393       .  A
C509        H519   1.082       .  S
C510        C515   1.483       .  S
C510        C511   1.395       .  A
C511        C512   1.414       .  A
C511        F516   1.353       .  S
C512        C513   1.376       .  A
C512        H517   1.038       .  S
C513        C514   1.460   1_655  A
C514        F518   1.358       .  S
C515        C520   1.406   1_655  A
C515        C524   1.408       .  A
C520        C521   1.395       .  A
C520        F525   1.357       .  S
C521        C522   1.401   1_455  A
C521        H526   1.083       .  S
C522        C523   1.399       .  A
C523        C524   1.395       .  A
C523        F527   1.358       .  S
C524        H528   1.080       .  S
C529        C530   1.408       .  A
C529        C534   1.429       .  A
C529        H539   1.082       .  S
C530        C535   1.501       .  S
C530        C531   1.379       .  A
C531        C532   1.371       .  A
C531        F536   1.359   1_565  S
C532        C533   1.432       .  A
C532        H537   1.055   1_565  S
C533        C534   1.431       .  A
C534        F538   1.337       .  S
C535        C540   1.411       .  A
C535        C544   1.412       .  A
C540        C541   1.408       .  A
C540        F545   1.355       .  S
C541        C542   1.407       .  A
C541        H546   1.083       .  S
C542        C543   1.401       .  A
C543        C544   1.393       .  A
C543        F547   1.358   1_565  S
C544        H548   1.083   1_565  S
C549        C550   1.411       .  A
C549        C554   1.390       .  A
C549        H559   1.082       .  S
C550        C555   1.495       .  S
C550        C551   1.415       .  A
C551        C552   1.396       .  A
C551        F556   1.354       .  S
C552        C553   1.396       .  A
C552        H557   1.083       .  S
C553        C554   1.396       .  A
C554        F558   1.358       .  S
C555        C560   1.395       .  A
C555        C564   1.401       .  A
C560        C561   1.383       .  A
C560        F565   1.359       .  S
C561        C562   1.441       .  A
C561        H566   1.063       .  S
C562        C563   1.382       .  A
C563        C564   1.419       .  A
C563        F567   1.341       .  S
C564        H568   1.078       .  S
C569        C570   1.408       .  A
C569        C574   1.398       .  A
C569        H579   1.082   1_565  S
C570        C575   1.492       .  S
C570        C571   1.413       .  A
C571        C572   1.396       .  A
C571        F576   1.356       .  S
C572        C573   1.397       .  A
C572        H577   1.083       .  S
C573        C574   1.400       .  A
C574        F578   1.356   1_565  S
C575        C580   1.397       .  A
C575        C584   1.393       .  A
C580        C581   1.402       .  A
C580        F585   1.358   1_565  S
C581        C582   1.410       .  A
C581        H586   1.044   1_565  S
C582        C583   1.437       .  A
C583        C584   1.398       .  A
C583        F587   1.344       .  S
C584        H588   1.081       .  S
C589        C590   1.416       .  A
C589        C594   1.416       .  A
C589        H599   1.078       .  S
C590        C595   1.528       .  S
C590        C591   1.419       .  A
C591        C592   1.406       .  A
C591        F596   1.357       .  S
C592        C593   1.401       .  A
C592        H597   1.083       .  S
C593        C594   1.408       .  A
C594        F598   1.357       .  S
C595        C600   1.410       .  A
C595        C604   1.394       .  A
C600        C601   1.434       .  A
C600        F605   1.356       .  S
C601        C602   1.397       .  A
C601        H606   1.064       .  S
C602        C603   1.457       .  A
C603        C604   1.403       .  A
C603        F607   1.349       .  S
C604        H608   1.081       .  S
C609        C610   1.402       .  A
C609        C614   1.416       .  A
C609        H619   1.079       .  S
C610        C615   1.521       .  S
C610        C611   1.399       .  A
C611        C612   1.412       .  A
C611        F616   1.355       .  S
C612        C613   1.426       .  A
C612        H617   1.062       .  S
C613        C614   1.422       .  A
C614        F618   1.336       .  S
C615        C620   1.413       .  A
C615        C624   1.417       .  A
C620        C621   1.405       .  A
C620        F625   1.355       .  S
C621        C622   1.403       .  A
C621        H626   1.080       .  S
C622        C623   1.406       .  A
C623        C624   1.410       .  A
C623        F627   1.357       .  S
C624        H628   1.081       .  S
C629        C630   1.409       .  A
C629        C634   1.395       .  A
C629        H639   1.083       .  S
C630        C635   1.492       .  S
C630        C631   1.408       .  A
C631        C632   1.407       .  A
C631        F636   1.357       .  S
C632        C633   1.406       .  A
C632        H637   1.083       .  S
C633        C634   1.397       .  A
C634        F638   1.357       .  S
C635        C640   1.378       .  A
C635        C644   1.396       .  A
C640        C641   1.384       .  A
C640        F645   1.354       .  S
C641        C642   1.442       .  A
C641        H646   1.062       .  S
C642        C643   1.409       .  A
C643        C644   1.419       .  A
C643        F647   1.291       .  S
C644        H648   1.083       .  S
C649        C650   1.402       .  A
C649        C654   1.387       .  A
C649        H659   1.083       .  S
C650        C655   1.458       .  S
C650        C651   1.403       .  A
C651        C652   1.389       .  A
C651        F656   1.357       .  S
C652        C653   1.397       .  A
C652        H657   1.083       .  S
C653        C654   1.398       .  A
C654        F658   1.355       .  S
C655        C660   1.381       .  A
C655        C664   1.381       .  A
C660        C661   1.382       .  A
C660        F665   1.356       .  S
C661        C662   1.437       .  A
C661        H666   1.071   1_556  S
C662        C663   1.395       .  A
C663        C664   1.394       .  A
C663        F667   1.289       .  S
C664        H668   1.081       .  S
C669        C670   1.406       .  A
C669        C674   1.408       .  A
C669        H679   1.082       .  S
C670        C675   1.494       .  S
C670        C671   1.415       .  A
C671        C672   1.396       .  A
C671        F676   1.358       .  S
C672        C673   1.398       .  A
C672        H677   1.084       .  S
C673        C674   1.407       .  A
C674        F678   1.356       .  S
C675        C680   1.402       .  A
C675        C684   1.374       .  A
C680        C681   1.421       .  A
C680        F685   1.354   1_556  S
C681        C682   1.424       .  A
C681        H686   1.063       .  S
C682        C683   1.465       .  A
C683        C684   1.382       .  A
C683        F687   1.342       .  S
C684        H688   1.084       .  S
C689        C690   1.404       .  A
C689        C694   1.404       .  A
C690        C695   1.492       .  S
C690        C691   1.410       .  A
C691        C692   1.403       .  A
C691        F696   1.357       .  S
C692        C693   1.404       .  A
C692        H697   1.083       .  S
C693        C694   1.408       .  A
C695        C700   1.397       .  A
C695        C704   1.385       .  A
C700        C701   1.415       .  A
C701        C702   1.427       .  A
C702        C703   1.446       .  A
C703        C704   1.397       .  A
C703        F707   1.358       .  S
C704        H708   1.079       .  S
C709        C710   1.404   1_545  A
C709        C714   1.425   1_544  A
C709        H719   1.082       .  S
C710        C715   1.493       .  S
C710        C711   1.381   1_554  A
C711        C712   1.372       .  A
C711        F716   1.358       .  S
C712        C713   1.438       .  A
C712        H717   1.062       .  S
C713        C714   1.416       .  A
C714        F718   1.334   1_565  S
C715        C720   1.409   1_564  A
C720        C721   1.404       .  A
C720        F725   1.355       .  S
C721        C722   1.406   1_546  A
C721        H726   1.083       .  S
C723        C724   1.387       .  A
C723        F727   1.358       .  S
C724        H728   1.083       .  S
C729        C730   1.409   1_545  A
C729        C734   1.398       .  A
C729        H739   1.081       .  S
C730        C735   1.494       .  S
C731        C732   1.400       .  A
C731        F736   1.357   1_556  S
C732        H737   1.083       .  S
C733        C734   1.400   1_565  A
C734        F738   1.356       .  S
C735        C740   1.391       .  A
C735        C744   1.394       .  A
C740        C741   1.393       .  A
C740        F745   1.357   1_565  S
C741        C742   1.419       .  A
C741        H746   1.039   1_565  S
C742        C743   1.432       .  A
C743        C744   1.411       .  A
C743        F747   1.325       .  S
C744        H748   1.083       .  S
C749        C750   1.392   1_556  A
C749        C754   1.391       .  A
C749        H759   1.081       .  S
C750        C755   1.500       .  S
C750        C751   1.405       .  A
C751        C752   1.419       .  A
C751        F756   1.356   1_655  S
C752        C753   1.383   1_554  A
C752        H757   1.069   1_654  S
C753        C754   1.445       .  A
C754        F758   1.350       .  S
C755        C764   1.407   1_554  A
C760        C761   1.397       .  A
C760        F765   1.357       .  S
C761        H766   1.083       .  S
C762        C763   1.401   1_554  A
C763        C764   1.395       .  A
C763        F767   1.356   1_655  S
C764        H768   1.072   1_655  S
