geometry optimzed in LAMMPS
_audit_creation_date              2020-11-30 
_audit_creation_method            'lammps2cif' 
_symmetry_space_group_name_H-M    'P1' 
_symmetry_Int_Tables_number       1 
_symmetry_cell_setting            triclinic 
loop_ 
_symmetry_equiv_pos_as_xyz 
  x,y,z 
_cell_length_a                    38.31421019 
_cell_length_b                    38.1063961955995 
_cell_length_c                    19.876239075254997 
_cell_angle_alpha                 95.51452353522147 
_cell_angle_beta                  84.71849002496197 
_cell_angle_gamma                 106.00132234009182 
loop_ 
_atom_site_label 
_atom_site_type_symbol 
_atom_site_fract_x 
_atom_site_fract_y 
_atom_site_fract_z 
_atom_site_charge 
C1          C  0.32079157  0.18968420  0.00885490     0.30900
C2          C  0.31163192  0.19962605  0.35681440     0.30900
C3          C  0.33098311  0.15515848  0.96295445    -0.05300
C4          C  0.28676799  0.19049427  0.97032736    -0.06100
C5          C  0.34923502  0.22017742  0.96741895    -0.05900
C6          C  0.34383180  0.19130667  0.39125787    -0.05300
C7          C  0.28017075  0.17215653  0.39874841    -0.06100
C8          C  0.31129137  0.23548470  0.40577656    -0.06000
C9          C  0.37275297  0.17860282  0.36454368    -0.31300
N10         N  0.38289084  0.16054814  0.41100915     0.15200
C11         C  0.34646321  0.12689138  0.97638827    -0.31300
H12         H  0.34420626  0.11601066  0.02522711     0.17100
C13         C  0.24841813  0.14672943  0.38229393    -0.30300
N14         N  0.23068370  0.17958894  0.93420539     0.13900
C15         C  0.25051970  0.18766785  0.98940468    -0.30300
C16         C  0.31397412  0.27169002  0.39496824    -0.30600
N17         N  0.39389771  0.26637601  0.92787950     0.14400
H18         H  0.31278314  0.28266674  0.34795056     0.17000
C19         C  0.37766278  0.25014319  0.98471610    -0.30600
H20         H  0.38704432  0.25918049  0.03454684     0.17000
H21         H  0.23842219  0.19027206  0.03947543     0.17000
H22         H  0.38604596  0.18207045  0.31462724     0.17100
H23         H  0.24231872  0.13221245  0.33369769     0.17000
C24         C  0.31153205  0.19825448  0.26204915     0.30900
C25         C  0.31645713  0.19438388  0.10390485     0.30900
C26         C  0.33526706  0.17611955  0.21732260    -0.05300
C27         C  0.27617492  0.18193499  0.22067813    -0.06100
C28         C  0.32555958  0.23421338  0.22211069    -0.05900
C29         C  0.34083323  0.17832565  0.14394904    -0.05300
C30         C  0.27907280  0.17683312  0.14621017    -0.06100
C31         C  0.32505119  0.23278830  0.14760264    -0.06000
C32         C  0.36596029  0.16016576  0.12310888    -0.31300
N33         N  0.36836174  0.13972075  0.17300360     0.15200
C34         C  0.34794085  0.14708209  0.22848396    -0.31300
H35         H  0.34136398  0.13142188  0.27239603     0.17100
C36         C  0.24510333  0.15510442  0.12963200    -0.30300
N37         N  0.22097925  0.15369489  0.18423846     0.13900
C38         C  0.23936944  0.17042533  0.23876865    -0.30300
C39         C  0.33895212  0.26862679  0.13116343    -0.30600
N40         N  0.35185500  0.28986800  0.18688113     0.14400
H41         H  0.34109847  0.27866724  0.08146971     0.17000
C42         C  0.34632646  0.26891240  0.24005352    -0.30600
H43         H  0.36001052  0.27742948  0.28617615     0.17000
H44         H  0.22661782  0.17447844  0.28801550     0.17000
H45         H  0.38133603  0.16111485  0.07483130     0.17100
H46         H  0.23850461  0.13985701  0.08151472     0.17000
N47         N  0.07359892  0.07580559  0.47393734    -0.05200
N48         N  0.09798121  0.10661659  0.49104256    -0.57300
N49         N  0.08919545  0.07116103  0.33014747    -0.04900
N50         N  0.12315980  0.09251375  0.32572943    -0.59500
N51         N  0.06669389  0.09221354  0.33648000    -0.04500
N52         N  0.08471130  0.12723731  0.33456455    -0.57300
N53         N  0.08958072  0.04890742  0.46256745    -0.04200
N54         N  0.12431332  0.06132346  0.47288998    -0.59800
C55         C  0.12891969  0.09700792  0.49222563     0.97000
C56         C  0.11995064  0.12725025  0.32764293     0.95500
N57         N  0.51243676  0.45571181  0.28876173    -0.05400
N58         N  0.48695215  0.46832907  0.27101202    -0.57900
N59         N  0.06161910  0.45185168  0.38788511    -0.03500
N60         N  0.08965326  0.43775233  0.37944453    -0.59200
N61         N  0.03082398  0.42522881  0.38965984    -0.05400
N62         N  0.03741234  0.39304912  0.38461994    -0.58200
N63         N  0.05489192  0.98241677  0.28453845    -0.03200
N64         N  0.04793230  0.00877080  0.25553845    -0.59300
Mn65       Mn  0.07523190  0.01406838  0.37297725     1.18400
C66         C  0.50171989  0.98070457  0.24908162     0.99000
C67         C  0.07390155  0.40140123  0.37846403     0.99700
N68         N  0.46454449  0.06325307  0.35911450    -0.05500
N69         N  0.45718729  0.09334658  0.34437773    -0.61800
N70         N  0.43991827  0.53637793  0.51372019    -0.04300
N71         N  0.45988018  0.50451433  0.97338924    -0.62400
N72         N  0.97229960  0.07340254  0.48510703    -0.05000
N73         N  0.08615117  0.99064236  0.88912120    -0.62000
N74         N  0.43458309  0.03552497  0.35896689    -0.03900
N75         N  0.40690961  0.04705399  0.34372138    -0.62700
Mn76       Mn  0.02174149  0.07358428  0.41582616     1.10700
C77         C  0.42132306  0.08305349  0.33462780     1.00300
C78         C  0.49553345  0.51862287  0.96216137     1.00300
N79         N  0.44755333  0.41889395  0.46559718    -0.05000
N80         N  0.43375326  0.38341174  0.47177555    -0.60300
N81         N  0.41065162  0.46113631  0.35050602    -0.04300
N82         N  0.37514564  0.45320515  0.34624511    -0.57100
N83         N  0.42269741  0.43192164  0.34122329    -0.05600
N84         N  0.39382695  0.40275477  0.33662864    -0.59900
N85         N  0.42187267  0.43653793  0.47601606    -0.04600
N86         N  0.38992238  0.41122768  0.48197021    -0.57100
Mn87       Mn  0.47959510  0.43413975  0.37539518     1.20200
Mn88       Mn  0.42890118  0.49466542  0.43571957     1.10100
Cl89       Cl  0.49630127  0.99465352  0.40723419    -0.85100
C90         C  0.39779459  0.37885067  0.48309486     0.97300
C91         C  0.36444417  0.41674564  0.33798861     0.97100
N92         N  0.06038101  0.09145860  0.18137018    -0.05200
N93         N  0.08539335  0.12375448  0.18177386    -0.57300
N94         N  0.06610123  0.07653325  0.04539278    -0.04900
N95         N  0.09607753  0.10190807  0.02975614    -0.59500
N96         N  0.03867179  0.09178989  0.04926479    -0.04500
N97         N  0.04966651  0.12585242  0.03164375    -0.57300
N98         N  0.07706680  0.06547451  0.17993862    -0.04200
N99         N  0.11234321  0.07941228  0.18364936    -0.59800
C100        C  0.11771421  0.11553425  0.18304502     0.97000
C101        C  0.08541284  0.13104217  0.01590909     0.96700
N102        N  0.52437584  0.46236739  0.03303399    -0.05400
N103        N  0.43408014  0.52404895  0.64470147    -0.57900
N104        N  0.04531225  0.47861325  0.02272148    -0.03500
N105        N  0.07726204  0.47118719  0.02304378    -0.59200
N106        N  0.01920645  0.44732330  0.01963118    -0.05400
N107        N  0.03335881  0.41889793  0.01845466    -0.58200
N108        N  0.06402237  0.98307951  0.02428909    -0.03200
N109        N  0.96998886  0.08069335  0.62255434    -0.59300
Mn110      Mn  0.06647227  0.02556393  0.09870789     1.18400
C111        C  0.42013810  0.07285537  0.59895379     0.99000
C112        C  0.06968589  0.43415031  0.02049649     0.99700
N113        N  0.44569174  0.05096538  0.07870876    -0.05500
N114        N  0.43246321  0.07920787  0.07807176    -0.61800
N115        N  0.44097396  0.54184672  0.24865324    -0.04300
N116        N  0.44605647  0.51608048  0.28123429    -0.62400
N117        N  0.97453722  0.06004464  0.22456375    -0.05000
N118        N  0.00112594  0.05371859  0.25412640    -0.62000
N119        N  0.41896876  0.02069890  0.07816724    -0.03900
N120        N  0.38751408  0.02812791  0.07647671    -0.62700
Mn121      Mn  0.00488673  0.07947452  0.13714424     1.10700
C122        C  0.39621390  0.06468358  0.07818873     1.00300
C123        C  0.48077232  0.52742032  0.29424547     1.00300
N124        N  0.44363071  0.43150975  0.19203303    -0.05000
N125        N  0.42892346  0.39608187  0.19449453    -0.60300
N126        N  0.41438326  0.46791295  0.07218986    -0.04300
N127        N  0.37953928  0.45274525  0.06314419    -0.57100
N128        N  0.43268709  0.44261066  0.06701450    -0.05600
N129        N  0.40871508  0.41007237  0.06301979    -0.59900
N130        N  0.41854960  0.44992869  0.20083130    -0.04600
N131        N  0.38606784  0.42567539  0.20451934    -0.57100
Mn132      Mn  0.48585409  0.44701885  0.11478385     1.20200
Mn133      Mn  0.42608667  0.50616762  0.15916772     1.10100
Cl134      Cl  0.48910524  0.98936591  0.10768911    -0.85100
C135        C  0.39307429  0.39244501  0.20111775     0.97300
C136        C  0.37633480  0.41664571  0.05718871     0.97100
C137        C  0.18792336  0.31688196  0.23326037     0.30900
C138        C  0.18771808  0.31682092  0.38969426     0.30900
C139        C  0.15224313  0.31465876  0.28050863    -0.05300
C140        C  0.19751279  0.28387003  0.26691399    -0.06100
C141        C  0.21366391  0.34950449  0.27661859    -0.05900
C142        C  0.15217355  0.31382059  0.35394999    -0.05300
C143        C  0.19802634  0.28428630  0.34209745    -0.06100
C144        C  0.21275557  0.34947349  0.35034992    -0.06000
C145        C  0.11724844  0.31090786  0.37882675    -0.31300
N146        N  0.09745137  0.31458436  0.32840750     0.15200
C147        C  0.11748108  0.31426661  0.26862517    -0.31300
H148        H  0.10778625  0.31670206  0.22067206     0.17100
C149        C  0.18850382  0.24751340  0.35624264    -0.30300
N150        N  0.17902799  0.22533232  0.29986949     0.13900
C151        C  0.18643621  0.24658831  0.24669662    -0.30300
C152        C  0.24117243  0.37820273  0.37071865    -0.30600
N153        N  0.26168773  0.39278252  0.31641705     0.14400
H154        H  0.24609504  0.38951751  0.42146779     0.17000
C155        C  0.24390622  0.37808125  0.26019247    -0.30600
H156        H  0.25240216  0.38862298  0.21157513     0.17000
H157        H  0.18083884  0.23517637  0.19614264     0.17000
H158        H  0.10758011  0.31082781  0.43151130     0.17100
H159        H  0.18441683  0.23746285  0.40527861     0.17000
C160        C  0.18602285  0.31910324  0.48396220     0.30900
C161        C  0.18664401  0.31883264  0.13917371     0.30900
C162        C  0.16115409  0.34078653  0.52918958    -0.05300
C163        C  0.17048100  0.28267263  0.51851915    -0.06100
C164        C  0.22063845  0.33393214  0.52761409    -0.05900
C165        C  0.16183112  0.33958997  0.10450535    -0.05300
C166        C  0.17364365  0.28198151  0.09468072    -0.06100
C167        C  0.22307348  0.33423265  0.09295329    -0.06000
C168        C  0.13767366  0.36092074  0.12634068    -0.31300
N169        N  0.12228260  0.36888657  0.07202725     0.15200
C170        C  0.14060798  0.36299624  0.51298862    -0.31300
H171        H  0.13957189  0.37144203  0.46302815     0.17100
C172        C  0.14715356  0.25090026  0.11028532    -0.30300
N173        N  0.13926019  0.22832596  0.05410106     0.13900
C174        C  0.14283882  0.25376635  0.49689104    -0.30300
C175        C  0.25919972  0.35047408  0.10500698    -0.30600
N176        N  0.27621262  0.36854035  0.05039102     0.14400
H177        H  0.27242064  0.34968938  0.15014303     0.17000
C178        C  0.25551223  0.35520167  0.51378578    -0.30600
H179        H  0.27089285  0.35628883  0.46548830     0.17000
H180        H  0.13103579  0.24991966  0.44820864     0.17000
H181        H  0.13217623  0.37067152  0.17796095     0.17100
H182        H  0.13255501  0.24596979  0.15936887     0.17000
C183        C  0.11143637  0.19430950  0.05443170    -0.15500
C184        C  0.11097517  0.16697956  0.00685735    -0.30700
H185        H  0.09194792  0.18954551  0.09836165     0.13500
H186        H  0.13175632  0.16979543  0.96558517     0.14100
C187        C  0.34133325  0.38817914  0.05923998    -0.15500
C188        C  0.31039302  0.39590389  0.04862078    -0.30700
H189        H  0.34087974  0.36041374  0.06839680     0.13500
H190        H  0.31114813  0.42289513  0.03401420     0.14100
C191        C  0.09452528  0.38828446  0.07217906    -0.15500
C192        C  0.09763137  0.41424168  0.02801584    -0.30700
H193        H  0.07040026  0.38063897  0.10645421     0.13500
H194        H  0.12318822  0.42295473  0.99800506     0.14100
C195        C  0.15075357  0.16147033  0.33103464    -0.15500
C196        C  0.15001746  0.19135363  0.30007960    -0.30700
H197        H  0.17460564  0.16166398  0.35645544     0.13500
H198        H  0.12665049  0.18954077  0.27132119     0.14100
C199        C  0.29968450  0.41286525  0.31813754    -0.15500
C200        C  0.32560186  0.39603528  0.32899859    -0.30700
H201        H  0.30715871  0.44210822  0.31252161     0.13500
H202        H  0.31786567  0.36649200  0.33105591     0.14100
C203        C  0.09316663  0.37479742  0.35445294    -0.15500
C204        C  0.07573195  0.33944531  0.34174189    -0.30700
H205        H  0.12272052  0.38396638  0.34855194     0.13500
H206        H  0.04623180  0.32923058  0.34763868     0.14100
C207        C  0.38494883  0.11076284  0.16202343    -0.15500
C208        C  0.37208316  0.08405003  0.11490103    -0.30700
H209        H  0.41180211  0.11516853  0.18015953     0.13500
H210        H  0.34423961  0.07819894  0.10078559     0.14100
C211        C  0.37692644  0.32550552  0.18614335    -0.15500
C212        C  0.36584291  0.35631309  0.19665342    -0.30700
H213        H  0.40567824  0.32702084  0.18111810     0.13500
H214        H  0.33703906  0.35473408  0.20222904     0.14100
C215        C  0.15503391  0.14060590  0.17294572    -0.15500
C216        C  0.18433839  0.13017156  0.18804428    -0.30700
H217        H  0.15850695  0.16775504  0.15593586     0.13500
H218        H  0.18031524  0.10376802  0.20790254     0.14100
C219        C  0.39897942  0.10906787  0.34769474    -0.15500
C220        C  0.40628359  0.13673065  0.39645297    -0.30700
H221        H  0.37420671  0.10323595  0.32198492     0.13500
H222        H  0.36070858  0.05257097  0.90717526     0.14100
C223        C  0.33863526  0.33125729  0.45917259    -0.15500
C224        C  0.37152460  0.34184763  0.48588602    -0.30700
H225        H  0.32963413  0.35064050  0.43370987     0.13500
H226        H  0.38170493  0.32091541  0.50427878     0.14100
C227        C  0.16412122  0.12350118  0.48693197    -0.15500
C228        C  0.19009999  0.11680216  0.44197604    -0.30700
H229        H  0.16816696  0.14931745  0.51732872     0.13500
H230        H  0.18444298  0.09261295  0.40674261     0.14100
C231        C  0.31076449  0.19835665  0.51403419     0.30900
C232        C  0.32294657  0.18685040  0.85202068     0.30900
C233        C  0.34166190  0.18728140  0.46443012    -0.05300
C234        C  0.27840186  0.17468719  0.47312599    -0.06100
C235        C  0.31160572  0.23496654  0.47997013    -0.05900
C236        C  0.33284997  0.15422783  0.88855413    -0.05300
C237        C  0.28844352  0.18908953  0.89714159    -0.06100
C238        C  0.34997611  0.21855572  0.89307422    -0.06000
C239        C  0.35233965  0.12749191  0.86652112    -0.31300
N240        N  0.36189985  0.11178624  0.92012618     0.15200
C241        C  0.36377559  0.16454622  0.47060364    -0.31300
H242        H  0.36417009  0.14972330  0.51409136     0.17100
C243        C  0.25411568  0.18527894  0.87903698    -0.30300
N244        N  0.22554264  0.14145437  0.43845716     0.13900
C245        C  0.24250164  0.16089650  0.49195432    -0.30300
C246        C  0.37881252  0.24674131  0.87280337    -0.30600
N247        N  0.31876066  0.29279436  0.45408124     0.14400
H248        H  0.38789049  0.25353386  0.82136408     0.17000
C249        C  0.31390949  0.27062937  0.50514182    -0.30600
H250        H  0.31150547  0.28091233  0.55706109     0.17000
H251        H  0.22916459  0.16572230  0.54086160     0.17000
H252        H  0.35785404  0.12060378  0.81776994     0.17100
H253        H  0.24605045  0.18321838  0.82795970     0.17000
C254        C  0.31747676  0.18986032  0.76063864     0.30900
C255        C  0.31161784  0.19492497  0.60775771     0.30900
C256        C  0.34929213  0.18727625  0.70785286    -0.05300
C257        C  0.28591961  0.16182580  0.72115186    -0.06100
C258        C  0.31225202  0.22648318  0.73454032    -0.05900
C259        C  0.34651497  0.18935107  0.63506427    -0.05300
C260        C  0.28267628  0.16425723  0.64919148    -0.06100
C261        C  0.31237623  0.22933717  0.65988754    -0.06000
C262        C  0.38195054  0.20138636  0.60995298    -0.31300
N263        N  0.40438563  0.19817779  0.65566153     0.15200
C264        C  0.38568534  0.19764632  0.71709687    -0.31300
H265        H  0.39690537  0.19576752  0.76429158     0.17100
C266        C  0.25222572  0.13553029  0.63314910    -0.30300
N267        N  0.23527957  0.11901158  0.68935873     0.13900
C268        C  0.25718642  0.13267493  0.74118786    -0.30300
C269        C  0.33799096  0.26238631  0.64971346    -0.30600
N270        N  0.34922610  0.28092976  0.70834927     0.14400
H271        H  0.35347448  0.26766448  0.60212488     0.17000
C272        C  0.33128869  0.26105942  0.75944542    -0.30600
H273        H  0.33588790  0.26933986  0.81193134     0.17000
H274        H  0.25251403  0.12244953  0.79098104     0.17000
H275        H  0.39156999  0.21185736  0.56119111     0.17100
H276        H  0.24436572  0.12419368  0.58369406     0.17000
N277        N  0.10620485  0.06524310  0.90793367    -0.05200
N278        N  0.13559558  0.08699422  0.93375550    -0.57300
N279        N  0.05959183  0.08516368  0.80782030    -0.04900
N280        N  0.06643393  0.11477589  0.77300123    -0.59500
N281        N  0.05127465  0.09529856  0.87068933    -0.04500
N282        N  0.05246251  0.13076937  0.87902893    -0.57300
N283        N  0.11352067  0.05490377  0.84461136    -0.04200
N284        N  0.14757641  0.07161251  0.82617390    -0.59800
C285        C  0.16076082  0.09204930  0.88236838     0.97000
C286        C  0.06173425  0.14258708  0.81637699     0.95500
N287        N  0.54666076  0.43701233  0.77683041    -0.05400
N288        N  0.55307058  0.41279914  0.72878975    -0.57900
N289        N  0.06020104  0.46980715  0.89413151    -0.03500
N290        N  0.09180762  0.46227981  0.88540863    -0.59200
N291        N  0.03341310  0.43897748  0.88918929    -0.05400
N292        N  0.04714015  0.41040360  0.87808749    -0.58200
N293        N  0.04181742  0.98683707  0.67884800    -0.03200
N294        N  0.04211696  0.00644196  0.73459516    -0.59300
Mn295      Mn  0.06965670  0.02422692  0.77539261     1.18400
C296        C  0.50891738  0.99869178  0.73139219     0.99000
C297        C  0.08340590  0.42566572  0.87582776     0.99700
N298        N  0.48087551  0.02822312  0.94921081    -0.05500
N299        N  0.47238180  0.05969036  0.94351960    -0.61800
N300        N  0.45499067  0.52729316  0.02306798    -0.04300
N301        N  0.41295588  0.54578208  0.55044241    -0.62400
N302        N  0.05416077  0.99896747  0.89587305    -0.05000
N303        N  0.96193641  0.10142738  0.51637305    -0.62000
N304        N  0.45140652  0.00054947  0.94625411    -0.03900
N305        N  0.42264673  0.01353128  0.93775220    -0.62700
Mn306      Mn  0.04568296  0.05362399  0.94684049     1.10700
C307        C  0.43566886  0.05111019  0.93643738     1.00300
C308        C  0.43130130  0.57491595  0.58869996     1.00300
N309        N  0.46657552  0.41305284  0.89940878    -0.05000
N310        N  0.45851239  0.37715375  0.89760832    -0.60300
N311        N  0.40368317  0.45627011  0.84541395    -0.04300
N312        N  0.36776162  0.44444390  0.85286585    -0.57100
N313        N  0.41813394  0.43204792  0.81080882    -0.05600
N314        N  0.39111793  0.40285778  0.79380159    -0.59900
N315        N  0.44040518  0.42607226  0.92897667    -0.04600
N316        N  0.41186530  0.39802310  0.93972737    -0.57100
Mn317      Mn  0.48823246  0.44348911  0.81017417     1.20200
Mn318      Mn  0.44341050  0.49027917  0.91779321     1.10100
Cl319      Cl  0.50954477  0.95762168  0.86182994    -0.85100
C320        C  0.42460678  0.36837228  0.92641064     0.97300
C321        C  0.36008615  0.41136625  0.81808950     0.97100
N322        N  0.07465543  0.06592232  0.68598113    -0.05200
N323        N  0.10730047  0.07710753  0.71235075    -0.57300
N324        N  0.04065180  0.10501062  0.58644971    -0.04900
N325        N  0.04642859  0.13379653  0.55098678    -0.59500
N326        N  0.03367587  0.11410382  0.65060596    -0.04500
N327        N  0.03609371  0.14929466  0.66010758    -0.57300
N328        N  0.08028076  0.05403804  0.62335042    -0.04200
N329        N  0.11515477  0.05575901  0.60789258    -0.59800
C330        C  0.13251482  0.07041758  0.66387940     0.97000
C331        C  0.04553003  0.16161599  0.59791137     0.96700
N332        N  0.46382712  0.51358135  0.62412528    -0.05400
N333        N  0.50397531  0.46428568  0.98628632    -0.57900
N334        N  0.04436394  0.48243071  0.51535648    -0.03500
N335        N  0.07606387  0.47441854  0.51522676    -0.59200
N336        N  0.01690606  0.45233533  0.51891619    -0.05400
N337        N  0.03053106  0.42370304  0.52141601    -0.58200
N338        N  0.97918773  0.04931619  0.61235369    -0.03200
N339        N  0.09535278  0.97699393  0.00081430    -0.59300
Mn340      Mn  0.03372201  0.04305021  0.55503916     1.18400
C341        C  0.56535836  0.90798447  0.98212676     0.99000
C342        C  0.06742703  0.43780683  0.51921860     0.99700
N343        N  0.43628454  0.09468308  0.74512572    -0.05500
N344        N  0.43069224  0.12592138  0.73562090    -0.61800
N345        N  0.50663708  0.47095371  0.69032429    -0.04300
N346        N  0.51763017  0.44197159  0.66558333    -0.62400
N347        N  0.97931435  0.05119827  0.82997615    -0.05000
N348        N  0.99852087  0.04831519  0.77493649    -0.62000
N349        N  0.40610226  0.06750465  0.73814934    -0.03900
N350        N  0.38064081  0.08095487  0.71849416    -0.62700
Mn351      Mn  0.01335712  0.07313560  0.72770665     1.10700
C352        C  0.39777215  0.11689124  0.71174527     1.00300
C353        C  0.55438933  0.45440075  0.65507893     1.00300
N354        N  0.45107400  0.40674174  0.62742315    -0.05000
N355        N  0.44515776  0.37181425  0.60728316    -0.60300
N356        N  0.39940349  0.45706606  0.67581409    -0.04300
N357        N  0.36489142  0.45431280  0.69430998    -0.57100
N358        N  0.40459515  0.45296494  0.61004068    -0.05600
N359        N  0.37379626  0.44937336  0.58246118    -0.59900
N360        N  0.44629012  0.41131739  0.69311872    -0.04600
N361        N  0.43841271  0.37934418  0.71941066    -0.57100
Mn362      Mn  0.46496484  0.45722810  0.56657890     1.20200
Mn363      Mn  0.44944491  0.47230516  0.73913237     1.10100
Cl364      Cl  0.46796471  0.02687374  0.65781807    -0.85100
C365        C  0.43563263  0.35483721  0.66525846     0.97300
C366        C  0.34896657  0.44793690  0.63510884     0.97100
C367        C  0.18114131  0.31600023  0.73443810     0.30900
C368        C  0.18637285  0.31801634  0.88951643     0.30900
C369        C  0.18186237  0.35178751  0.78168417    -0.05300
C370        C  0.15070704  0.28889820  0.78072277    -0.06100
C371        C  0.21611960  0.30901103  0.76445890    -0.05900
C372        C  0.18501343  0.35292412  0.85491077    -0.05300
C373        C  0.15345552  0.29123591  0.85394767    -0.06100
C374        C  0.21839251  0.30993690  0.83895125    -0.06000
C375        C  0.18055367  0.38602317  0.88104409    -0.31300
N376        N  0.17148491  0.40302455  0.83142050     0.15200
C377        C  0.17352826  0.38347812  0.77133119    -0.31300
H378        H  0.16575911  0.39043062  0.72474413     0.17100
C379        C  0.12277619  0.26730762  0.88074334    -0.30300
N380        N  0.10387788  0.24656044  0.83062236     0.13900
C381        C  0.11868341  0.26081574  0.77064764    -0.30300
C382        C  0.25538815  0.32254950  0.84875304    -0.30600
N383        N  0.27517339  0.33056199  0.78968290     0.14400
H384        H  0.26749373  0.32704101  0.89629933     0.17000
C385        C  0.25240478  0.31992404  0.73904746    -0.30600
H386        H  0.26196890  0.32219392  0.68669908     0.17000
H387        H  0.10553285  0.25229876  0.72424936     0.17000
H388        H  0.17975738  0.39559606  0.93390577     0.17100
H389        H  0.11464045  0.26446268  0.93370456     0.17000
C390        C  0.18647630  0.31778060  0.98270793     0.30900
C391        C  0.17933685  0.31770510  0.64070049     0.30900
C392        C  0.16111631  0.33701446  0.03023583    -0.05300
C393        C  0.17631423  0.28072214  0.02014243    -0.06100
C394        C  0.22163035  0.33679224  0.02028204    -0.05900
C395        C  0.15594289  0.33864487  0.60328280    -0.05300
C396        C  0.16989940  0.28110192  0.59255676    -0.06100
C397        C  0.21602459  0.33603416  0.60172912    -0.06000
C398        C  0.12866373  0.35639694  0.62275557    -0.31300
N399        N  0.12026029  0.37145353  0.56855061     0.15200
C400        C  0.13549977  0.35345273  0.01500843    -0.31300
H401        H  0.12608519  0.35341487  0.96518087     0.17100
C402        C  0.14572153  0.24806339  0.60518899    -0.30300
N403        N  0.12909330  0.23282188  0.54825450     0.13900
C404        C  0.15780397  0.24531673  0.99952226    -0.30300
C405        C  0.24378846  0.36475810  0.62332708    -0.30600
N406        N  0.26840060  0.37491881  0.57088330     0.14400
H407        H  0.24541388  0.37717871  0.67447917     0.17000
C408        C  0.25308437  0.36194399  0.00075972    -0.30600
H409        H  0.25833336  0.37588276  0.95443843     0.17000
H410        H  0.15545628  0.23367956  0.94808845     0.17000
H411        H  0.11539641  0.35783716  0.67295455     0.17100
H412        H  0.14090213  0.23533447  0.65202489     0.17000
C413        C  0.09857795  0.20176988  0.54366072    -0.15500
C414        C  0.07132764  0.19728485  0.59176962    -0.30700
H415        H  0.09833101  0.18171437  0.50070603     0.13500
H416        H  0.07170038  0.21807610  0.63304122     0.14100
C417        C  0.31238928  0.42359098  0.63059815    -0.15500
C418        C  0.30222372  0.40276989  0.57342716    -0.30700
H419        H  0.29518714  0.42044182  0.67734099     0.13500
H420        H  0.32017407  0.40632918  0.52740805     0.14100
C421        C  0.09180537  0.39018350  0.56768899    -0.15500
C422        C  0.09548101  0.41779660  0.52693822    -0.30700
H423        H  0.06736423  0.38204514  0.60089062     0.13500
H424        H  0.12164789  0.42791841  0.49941166     0.14100
C425        C  0.07834917  0.18138690  0.79955398    -0.15500
C426        C  0.07861725  0.21108624  0.84235948    -0.30700
H427        H  0.09379203  0.18532131  0.75089364     0.13500
H428        H  0.06465404  0.20695816  0.89231319     0.14100
C429        C  0.31209223  0.35418977  0.78243109    -0.15500
C430        C  0.32363173  0.38442833  0.82478135    -0.30700
H431        H  0.32931105  0.34994713  0.73742383     0.13500
H432        H  0.30467277  0.39094697  0.86512522     0.14100
C433        C  0.11045586  0.40614694  0.85348590    -0.15500
C434        C  0.14590639  0.42397144  0.84590281    -0.30700
H435        H  0.10160930  0.37654923  0.84460461     0.13500
H436        H  0.15564645  0.45343432  0.85646589     0.14100
C437        C  0.41901602  0.16759775  0.64098261    -0.15500
C438        C  0.39509048  0.13447318  0.65087363    -0.30700
H439        H  0.44692512  0.17251605  0.65395944     0.13500
H440        H  0.36808112  0.12784855  0.63253164     0.14100
C441        C  0.38094945  0.31168357  0.71545050    -0.15500
C442        C  0.40698117  0.32026208  0.66449848    -0.30700
H443        H  0.38366091  0.32818488  0.76345164     0.13500
H444        H  0.40556098  0.30360797  0.61707452     0.14100
C445        C  0.17126218  0.09444252  0.65793740    -0.15500
C446        C  0.19915111  0.09292835  0.69468015    -0.30700
H447        H  0.17708711  0.11446051  0.62017544     0.13500
H448        H  0.19403986  0.07279222  0.73195198     0.14100
C449        C  0.41469110  0.08155944  0.93034157    -0.15500
C450        C  0.37856165  0.07967018  0.91749159    -0.30700
H451        H  0.43191133  0.10926057  0.93902917     0.13500
H452        H  0.42863196  0.13984938  0.42828492     0.14100
C453        C  0.41752690  0.30252459  0.92523099    -0.15500
C454        C  0.40366547  0.33121890  0.94013807    -0.30700
H455        H  0.44485714  0.30615538  0.90137894     0.13500
H456        H  0.37552412  0.32692625  0.96042911     0.14100
C457        C  0.18823095  0.12721596  0.87920431    -0.15500
C458        C  0.19712219  0.15077815  0.93434624    -0.30700
H459        H  0.20112064  0.13367885  0.82962410     0.13500
H460        H  0.18263299  0.14385345  0.98303214     0.14100
C461        C  0.28858006  0.69335804  0.05603647     0.30900
C462        C  0.29390866  0.69561317  0.39807359     0.30900
C463        C  0.29383852  0.65880516  0.00979122    -0.05300
C464        C  0.25530021  0.69769102  0.01962319    -0.06100
C465        C  0.31845715  0.72197284  0.01642840    -0.05900
C466        C  0.30100716  0.66158133  0.42735781    -0.05300
C467        C  0.26007639  0.69698648  0.44910347    -0.06100
C468        C  0.32316592  0.72547496  0.43978234    -0.06000
C469        C  0.31677452  0.63589822  0.39546332    -0.31300
N470        N  0.32869497  0.61951479  0.44242434     0.15200
C471        C  0.30714733  0.63045192  0.02339299    -0.31300
H472        H  0.31258274  0.62479998  0.07294403     0.17100
C473        C  0.22366071  0.68532530  0.43718554    -0.30300
N474        N  0.19819646  0.68028514  0.98866982     0.13900
C475        C  0.21909679  0.68804518  0.04217650    -0.30300
C476        C  0.34927041  0.75731349  0.42359321    -0.30600
N477        N  0.37323239  0.75377185  0.98066445     0.14400
H478        H  0.35540621  0.76827697  0.37442257     0.17000
C479        C  0.35130679  0.74332964  0.03616219    -0.30600
H480        H  0.35960780  0.74967218  0.08758891     0.17000
H481        H  0.20875461  0.68258648  0.09363208     0.17000
H482        H  0.32215492  0.63142079  0.34143470     0.17100
H483        H  0.21282084  0.67855848  0.38805976     0.17000
C484        C  0.29202849  0.69598600  0.30454495     0.30900
C485        C  0.28894312  0.69492547  0.14938910     0.30900
C486        C  0.32614510  0.69339734  0.25423861    -0.05300
C487        C  0.26320037  0.66466189  0.26413158    -0.06100
C488        C  0.28497622  0.72990233  0.27132470    -0.05900
C489        C  0.32404688  0.69364511  0.18104328    -0.05300
C490        C  0.26237469  0.66457239  0.19070952    -0.06100
C491        C  0.28348537  0.72872507  0.19649649    -0.06000
C492        C  0.35484062  0.68758818  0.15030112    -0.31300
N493        N  0.37465182  0.68039269  0.19709881     0.15200
C494        C  0.35874161  0.68518305  0.26028478    -0.31300
H495        H  0.36844273  0.67964629  0.30617676     0.17100
C496        C  0.23561680  0.63466039  0.17038606    -0.30300
N497        N  0.21933930  0.61636523  0.22515707     0.13900
C498        C  0.23580925  0.63397003  0.28175148    -0.30300
C499        C  0.29723787  0.76402552  0.17954917    -0.30600
N500        N  0.30611257  0.78686023  0.23504443     0.14400
H501        H  0.30544435  0.77162389  0.12847091     0.17000
C502        C  0.29864984  0.76701770  0.29035486    -0.30600
H503        H  0.30603043  0.77844023  0.34040978     0.17000
H504        H  0.22787512  0.62537358  0.33245658     0.17000
H505        H  0.36039508  0.68378820  0.09587607     0.17100
H506        H  0.22772048  0.62789931  0.11894664     0.17000
N507        N  0.06578896  0.57546849  0.46684896    -0.05200
N508        N  0.09036223  0.60670271  0.48152629    -0.57300
N509        N  0.07513357  0.57061795  0.32156439    -0.04900
N510        N  0.10740955  0.59508841  0.31851831    -0.59500
N511        N  0.04949866  0.58774384  0.32652453    -0.04500
N512        N  0.06371677  0.62321475  0.32351452    -0.57300
N513        N  0.08189270  0.54891026  0.45501788    -0.04200
N514        N  0.11690215  0.56121677  0.46265716    -0.59800
C515        C  0.12164610  0.59686346  0.48155395     0.97000
C516        C  0.09976979  0.62743936  0.31606508     0.95500
N517        N  0.51377027  0.93992475  0.29819601    -0.05400
N518        N  0.48905854  0.94602338  0.26345994    -0.57900
N519        N  0.07040843  0.96071641  0.40964649    -0.03500
N520        N  0.09795448  0.94582435  0.40240233    -0.59200
N521        N  0.03957620  0.93470467  0.41324628    -0.05400
N522        N  0.04577484  0.90235562  0.40983942    -0.58200
N523        N  0.05463092  0.46524039  0.28314882    -0.03200
N524        N  0.07986868  0.45760573  0.23948719    -0.59300
Mn525      Mn  0.06128662  0.51134312  0.36534126     1.18400
C526        C  0.50155583  0.50350152  0.26724677     0.99000
C527        C  0.08204519  0.90955500  0.40252104     0.99700
N528        N  0.46101327  0.57666359  0.39806433    -0.05500
N529        N  0.45022251  0.60608708  0.38956687    -0.61800
N530        N  0.43578659  0.03161110  0.48416195    -0.04300
N531        N  0.52147295  0.89937401  0.90137555    -0.62400
N532        N  0.96148960  0.56327976  0.49054034    -0.05000
N533        N  0.94148819  0.58662739  0.04443127    -0.62000
N534        N  0.43252335  0.54743060  0.39602129    -0.03900
N535        N  0.40311836  0.55638923  0.38436062    -0.62700
Mn536      Mn  0.01076548  0.56658791  0.41370584     1.10700
C537        C  0.41405914  0.59277241  0.38066847     1.00300
C538        C  0.55738726  0.90967080  0.91159519     1.00300
N539        N  0.45023999  0.91936858  0.48208892    -0.05000
N540        N  0.43832789  0.88500776  0.49781779    -0.60300
N541        N  0.41463791  0.94543939  0.34016046    -0.04300
N542        N  0.37945686  0.93653644  0.33373376    -0.57100
N543        N  0.42647919  0.91673470  0.34451719    -0.05600
N544        N  0.39772236  0.88745071  0.34709531    -0.59900
N545        N  0.42317128  0.93462267  0.47995316    -0.04600
N546        N  0.39262366  0.90774520  0.48600932    -0.57100
Mn547      Mn  0.48147990  0.92499311  0.38948111     1.20200
Mn548      Mn  0.42899837  0.98610502  0.41695813     1.10100
Cl549      Cl  0.49744867  0.50311979  0.41637623    -0.85100
C550        C  0.40210908  0.87746524  0.49877226     0.97300
C551        C  0.36860544  0.90065789  0.34009293     0.97100
N552        N  0.07810703  0.54935279  0.18691085    -0.05200
N553        N  0.10863374  0.55032653  0.21396128    -0.57300
N554        N  0.03771766  0.59122658  0.10237310    -0.04900
N555        N  0.04602739  0.62433122  0.08061742    -0.59500
N556        N  0.03117559  0.59352786  0.16828536    -0.04500
N557        N  0.03610200  0.62805774  0.19201916    -0.57300
N558        N  0.08361669  0.54675418  0.12071087    -0.04200
N559        N  0.11791338  0.54794029  0.10238876    -0.59800
C560        C  0.13357894  0.55100306  0.16141854     0.97000
C561        C  0.04558898  0.64719896  0.13646043     0.96700
N562        N  0.52349930  0.92554045  0.03513590    -0.05400
N563        N  0.40792717  0.03779905  0.61438319    -0.57900
N564        N  0.06895253  0.97616280  0.14604629    -0.03500
N565        N  0.09962254  0.96941108  0.15883872    -0.59200
N566        N  0.04212527  0.94547565  0.14439773    -0.05400
N567        N  0.05454808  0.91787388  0.15738344    -0.58200
N568        N  0.98248197  0.52814750  0.10266088    -0.03200
N569        N  0.97064649  0.56397983  0.62691621    -0.59300
Mn570      Mn  0.03950689  0.53657632  0.05241864     1.18400
C571        C  0.44463418  0.56100340  0.64533532     0.99000
C572        C  0.09019675  0.93320223  0.16712318     0.99700
N573        N  0.45667596  0.58706754  0.12408477    -0.05500
N574        N  0.44902086  0.61770667  0.11536736    -0.61800
N575        N  0.43539490  0.01302767  0.21543367    -0.04300
N576        N  0.44330577  0.98986109  0.25139743    -0.62400
N577        N  0.02190717  0.49189074  0.16822383    -0.05000
N578        N  0.05259599  0.48176021  0.15454076    -0.62000
N579        N  0.42740838  0.55919420  0.12131894    -0.03900
N580        N  0.39919954  0.57065918  0.11038251    -0.62700
Mn581      Mn  0.02082070  0.54610094  0.22923049     1.10700
C582        C  0.41314499  0.60716328  0.10743114     1.00300
C583        C  0.47797796  0.00384896  0.26394889     1.00300
N584        N  0.43834511  0.90789422  0.18517400    -0.05000
N585        N  0.42552469  0.87334466  0.19905959    -0.60300
N586        N  0.41173316  0.93608849  0.04299951    -0.04300
N587        N  0.37824187  0.92256788  0.02393871    -0.57100
N588        N  0.42793041  0.90978195  0.04638455    -0.05600
N589        N  0.40300319  0.87779852  0.03623324    -0.59900
N590        N  0.41187961  0.92362680  0.18500463    -0.04600
N591        N  0.38016665  0.89889521  0.19658307    -0.57100
Mn592      Mn  0.48014055  0.92002477  0.10673838     1.20200
Mn593      Mn  0.41995395  0.97474536  0.12910213     1.10100
Cl594      Cl  0.49559479  0.51637124  0.13535409    -0.85100
C595        C  0.38936629  0.86782945  0.20649522     0.97300
C596        C  0.37300703  0.88617593  0.01862418     0.97100
C597        C  0.18875314  0.80832052  0.24879899     0.30900
C598        C  0.18431086  0.80845605  0.40488933     0.30900
C599        C  0.15306957  0.81073980  0.29324079    -0.05300
C600        C  0.19395077  0.77441127  0.28316508    -0.06100
C601        C  0.21595409  0.83860413  0.29202052    -0.05900
C602        C  0.15090170  0.80946775  0.36679943    -0.05300
C603        C  0.19109145  0.77383786  0.35830308    -0.06100
C604        C  0.21341166  0.83920712  0.36597806    -0.06000
C605        C  0.11744500  0.81274645  0.39006311    -0.31300
N606        N  0.10126715  0.82130050  0.33869633     0.15200
C607        C  0.12176909  0.81890581  0.27977526    -0.31300
H608        H  0.11636551  0.82702709  0.23182166     0.17100
C609        C  0.17739061  0.73680088  0.36896784    -0.30300
N610        N  0.17382468  0.71609612  0.30888034     0.13900
C611        C  0.18432810  0.73839237  0.25764411    -0.30300
C612        C  0.24396359  0.86564886  0.38631532    -0.30600
N613        N  0.26597372  0.87760225  0.33127448     0.14400
H614        H  0.25026896  0.87567074  0.43734454     0.17000
C615        C  0.24861968  0.86316130  0.27454337    -0.30600
H616        H  0.26012559  0.86879810  0.22372802     0.17000
H617        H  0.18039852  0.72926945  0.20502116     0.17000
H618        H  0.10747176  0.81405319  0.44258386     0.17100
H619        H  0.16761799  0.72593138  0.41760621     0.17000
C620        C  0.18166333  0.81196042  0.49919369     0.30900
C621        C  0.18997676  0.80898623  0.15568534     0.30900
C622        C  0.16917696  0.84438324  0.54424082    -0.05300
C623        C  0.15584309  0.78051455  0.53996088    -0.06100
C624        C  0.21659762  0.81410341  0.53684513    -0.05900
C625        C  0.18610841  0.84366747  0.12430418    -0.05300
C626        C  0.15931298  0.78099089  0.11618440    -0.06100
C627        C  0.22332826  0.80374922  0.10559754    -0.06000
C628        C  0.17529053  0.87313784  0.15436573    -0.31300
N629        N  0.16788461  0.89212376  0.10582349     0.15200
C630        C  0.14682343  0.86590780  0.52880306    -0.31300
H631        H  0.14048328  0.86938978  0.47895590     0.17100
C632        C  0.13033545  0.75327520  0.13755460    -0.30300
N633        N  0.11167252  0.73617891  0.08332376     0.13900
C634        C  0.12586361  0.75376935  0.52083444    -0.30300
C635        C  0.25986335  0.81341899  0.11623773    -0.30600
N636        N  0.28073348  0.81753817  0.05700852     0.14400
H637        H  0.27041001  0.82050994  0.16536592     0.17000
C638        C  0.25290035  0.82681190  0.51666542    -0.30600
H639        H  0.26467956  0.82961198  0.46522426     0.17000
H640        H  0.11739972  0.74634558  0.46961178     0.17000
H641        H  0.17001049  0.87860403  0.20818964     0.17100
H642        H  0.12417054  0.74559286  0.18898813     0.17000
C643        C  0.08308237  0.70230180  0.08256753    -0.15500
C644        C  0.06788295  0.68569221  0.13930576    -0.30700
H645        H  0.07556580  0.68829025  0.03333576     0.13500
H646        H  0.07408362  0.69918516  0.18891535     0.14100
C647        C  0.33575558  0.86092072  0.01147674    -0.15500
C648        C  0.31997423  0.83373746  0.05222316    -0.30700
H649        H  0.31839657  0.86952453  0.98037731     0.13500
H650        H  0.33625324  0.82810577  0.08966039     0.14100
C651        C  0.14639807  0.91800664  0.11800326    -0.15500
C652        C  0.11667873  0.91131783  0.16189028    -0.30700
H653        H  0.15150283  0.94039891  0.08532196     0.13500
H654        H  0.10922015  0.88638072  0.18852737     0.14100
C655        C  0.12490692  0.66273055  0.33641301    -0.15500
C656        C  0.15482086  0.67783524  0.29789306    -0.30700
H657        H  0.11556592  0.67909487  0.37855491     0.13500
H658        H  0.16154813  0.66270135  0.25160247     0.14100
C659        C  0.30390574  0.89708963  0.33171312    -0.15500
C660        C  0.32925457  0.88164959  0.35042389    -0.30700
H661        H  0.31263213  0.92287831  0.30790638     0.13500
H662        H  0.32097523  0.85458442  0.36940059     0.14100
C663        C  0.10016499  0.88222564  0.37345718    -0.15500
C664        C  0.08155279  0.84808134  0.35280954    -0.30700
H665        H  0.12974695  0.88971953  0.37038119     0.13500
H666        H  0.05207347  0.83959383  0.35510627     0.14100
C667        C  0.39931065  0.65840433  0.17892186    -0.15500
C668        C  0.39082842  0.63146206  0.12914733    -0.30700
H669        H  0.42319532  0.66241353  0.20695735     0.13500
H670        H  0.36462600  0.62473181  0.10734617     0.14100
C671        C  0.32842305  0.82398190  0.23140038    -0.15500
C672        C  0.36456563  0.83106880  0.21889685    -0.30700
H673        H  0.31556027  0.84589639  0.23097185     0.13500
H674        H  0.37683197  0.80843760  0.21730621     0.14100
C675        C  0.17247269  0.56976393  0.16671750    -0.15500
C676        C  0.18599717  0.58717316  0.22503562    -0.30700
H677        H  0.18897718  0.57344502  0.11936269     0.13500
H678        H  0.16980291  0.58211997  0.27240715     0.14100
C679        C  0.38759998  0.61435370  0.39575207    -0.15500
C680        C  0.35496318  0.59924434  0.42762975    -0.30700
H681        H  0.39486205  0.64265271  0.38307320     0.13500
H682        H  0.33306258  0.56277980  0.95785835     0.14100
C683        C  0.39096797  0.80957678  0.48789837    -0.15500
C684        C  0.37890181  0.83946788  0.48472395    -0.30700
H685        H  0.41783623  0.81270410  0.50513619     0.13500
H686        H  0.35130349  0.83563053  0.47047207     0.14100
C687        C  0.15814893  0.62199073  0.47812352    -0.15500
C688        C  0.16606825  0.65722395  0.50091291    -0.30700
H689        H  0.18019912  0.61055127  0.45721077     0.13500
H690        H  0.14509878  0.66920092  0.52584405     0.14100
C691        C  0.29799548  0.69209573  0.55332193     0.30900
C692        C  0.29206297  0.69232105  0.89929105     0.30900
C693        C  0.30284390  0.65957408  0.50081564    -0.05300
C694        C  0.26187354  0.69592862  0.52312532    -0.06100
C695        C  0.32559210  0.72297235  0.51246467    -0.05900
C696        C  0.29505147  0.65808073  0.93540672    -0.05300
C697        C  0.25646255  0.69679240  0.94464754    -0.06100
C698        C  0.32048995  0.72107266  0.94229521    -0.06000
C699        C  0.30754547  0.62838162  0.91164458    -0.31300
N700        N  0.31629598  0.61319157  0.96434387     0.15200
C701        C  0.31949211  0.63234943  0.50555465    -0.31300
H702        H  0.32732294  0.62454287  0.55124843     0.17100
C703        C  0.22007783  0.68512495  0.93038060    -0.30300
N704        N  0.20338884  0.67854277  0.49639675     0.13900
C705        C  0.22574091  0.68490673  0.54788504    -0.30300
C706        C  0.35516823  0.74047418  0.92397453    -0.30600
N707        N  0.36683393  0.77323830  0.47976682     0.14400
H708        H  0.36667851  0.74366562  0.87253721     0.17000
C709        C  0.35448743  0.75160261  0.53170519    -0.30600
H710        H  0.36505780  0.75741449  0.58134783     0.17000
H711        H  0.21617884  0.67848255  0.59929586     0.17000
H712        H  0.31264463  0.61977234  0.85936858     0.17100
H713        H  0.21021635  0.67818195  0.88047085     0.17000
C714        C  0.29764914  0.69373623  0.80481437     0.30900
C715        C  0.30113430  0.69158744  0.64732654     0.30900
C716        C  0.32954373  0.68106741  0.76099345    -0.05300
C717        C  0.26638738  0.66797198  0.76256613    -0.06100
C718        C  0.30238238  0.73045505  0.76639528    -0.05900
C719        C  0.33188323  0.67970912  0.68615795    -0.05300
C720        C  0.26834973  0.66709937  0.68854861    -0.06100
C721        C  0.30155084  0.72838603  0.69229963    -0.06000
C722        C  0.35962453  0.66170202  0.66766965    -0.31300
N723        N  0.37258539  0.65198192  0.72365763     0.15200
C724        C  0.35554695  0.66514818  0.77928627    -0.31300
H725        H  0.36203080  0.66352806  0.83054907     0.17100
C726        C  0.24193008  0.63704391  0.66758167    -0.30300
N727        N  0.22298674  0.62072609  0.72246370     0.13900
C728        C  0.23804106  0.63839307  0.77955433    -0.30300
C729        C  0.31218452  0.76399852  0.67333897    -0.30600
N730        N  0.32528757  0.78754609  0.72605785     0.14400
H731        H  0.31353154  0.77224049  0.62267641     0.17000
C732        C  0.31997104  0.76764402  0.78198516    -0.30600
H733        H  0.33095313  0.77887694  0.83012828     0.17000
H734        H  0.22952683  0.62938609  0.82989200     0.17000
H735        H  0.36946994  0.65558288  0.61659947     0.17100
H736        H  0.23740415  0.62777136  0.61531391     0.17000
N737        N  0.05321643  0.58462584  0.96061566    -0.05200
N738        N  0.07851405  0.61636633  0.96709504    -0.57300
N739        N  0.06094716  0.57755716  0.81796194    -0.04900
N740        N  0.09201319  0.60297972  0.80643745    -0.59500
N741        N  0.03434128  0.59385888  0.82633936    -0.04500
N742        N  0.04673198  0.62923869  0.81801522    -0.57300
N743        N  0.06928201  0.55795873  0.95272570    -0.04200
N744        N  0.10408600  0.57074171  0.96235210    -0.59800
C745        C  0.10964580  0.60705533  0.97237425     0.97000
C746        C  0.08257496  0.63439099  0.80315206     0.95500
N747        N  0.51190932  0.94584779  0.70897379    -0.05400
N748        N  0.48928955  0.96550151  0.71024728    -0.57900
N749        N  0.08313674  0.96745613  0.76009978    -0.03500
N750        N  0.11466293  0.95994305  0.76427060    -0.59200
N751        N  0.05659868  0.93629663  0.75928183    -0.05400
N752        N  0.06979870  0.90822098  0.76009472    -0.58200
N753        N  0.05043179  0.48008448  0.78184378    -0.03200
N754        N  0.07856992  0.47302758  0.74564721    -0.59300
Mn755      Mn  0.05821153  0.52255747  0.86232435     1.18400
C756        C  0.57692131  0.43644011  0.69011112     0.99000
C757        C  0.10548485  0.92292183  0.76714372     0.99700
N758        N  0.45620580  0.57651813  0.91082710    -0.05500
N759        N  0.44199168  0.60458262  0.92345457    -0.61800
N760        N  0.51115775  0.93014593  0.89631914    -0.04300
N761        N  0.40634235  0.04348087  0.49648621    -0.62400
N762        N  0.94941533  0.56455452  0.99417997    -0.05000
N763        N  0.95322367  0.58912730  0.53237766    -0.62000
N764        N  0.42967099  0.54564766  0.91130083    -0.03900
N765        N  0.39753711  0.55214160  0.92347925    -0.62700
Mn766      Mn  0.99669176  0.57395261  0.91393214     1.10700
C767        C  0.40555905  0.58892441  0.93017195     1.00300
C768        C  0.41937027  0.07691698  0.52669671     1.00300
N769        N  0.46271710  0.86542781  0.85387411    -0.05000
N770        N  0.46225901  0.83073729  0.85170539    -0.60300
N771        N  0.42260325  0.93265296  0.85492433    -0.04300
N772        N  0.38750663  0.92532751  0.87410239    -0.57100
N773        N  0.42920357  0.90930950  0.80583869    -0.05600
N774        N  0.39921400  0.88162817  0.80235275    -0.59900
N775        N  0.45220887  0.87761024  0.91491715    -0.04600
N776        N  0.44596088  0.85078617  0.95534545    -0.57100
Mn777      Mn  0.48587779  0.90352057  0.77714747     1.20200
Mn778      Mn  0.45452768  0.93871659  0.93913484     1.10100
Cl779      Cl  0.50320056  0.51478142  0.83281727    -0.85100
C780        C  0.45140333  0.82170421  0.91540820     0.97300
C781        C  0.37293167  0.89274334  0.84260480     0.97100
N782        N  0.08337129  0.55944644  0.68375916    -0.05200
N783        N  0.11313143  0.56003172  0.71259843    -0.57300
N784        N  0.04063897  0.59969438  0.59751198    -0.04900
N785        N  0.04300556  0.63072176  0.57129162    -0.59500
N786        N  0.03462816  0.60312473  0.66312991    -0.04500
N787        N  0.03324560  0.63653686  0.68374840    -0.57300
N788        N  0.08870211  0.55546230  0.61801513    -0.04200
N789        N  0.12232891  0.55434626  0.60037916    -0.59800
C790        C  0.13751222  0.55830581  0.65986163     0.97000
C791        C  0.03948987  0.65374265  0.62615578     0.96700
N792        N  0.43773122  0.02685212  0.61890902    -0.05400
N793        N  0.53363432  0.89536298  0.01736432    -0.57900
N794        N  0.04247261  0.98389913  0.54053749    -0.03500
N795        N  0.07409579  0.97696389  0.54648172    -0.59200
N796        N  0.01552986  0.95406303  0.54691061    -0.05400
N797        N  0.02914638  0.92606155  0.55653209    -0.58200
N798        N  0.98267679  0.53474778  0.60907890    -0.03200
N799        N  0.96919169  0.55669018  0.11978716    -0.59300
Mn800      Mn  0.03854165  0.54056440  0.55415376     1.18400
C801        C  0.51896793  0.49689814  0.96346217     0.99000
C802        C  0.06610699  0.94096914  0.55655822     0.99700
N803        N  0.47120922  0.56344616  0.77547044    -0.05500
N804        N  0.46007524  0.59383377  0.77553916    -0.61800
N805        N  0.44705342  0.02652360  0.80173735    -0.04300
N806        N  0.45973182  0.99879036  0.80701567    -0.62400
N807        N  0.02578894  0.49715329  0.66560611    -0.05000
N808        N  0.05645800  0.48855185  0.64644017    -0.62000
N809        N  0.44277252  0.53418155  0.77590128    -0.03900
N810        N  0.41225525  0.54480653  0.77713745    -0.62700
Mn811      Mn  0.02275887  0.55170732  0.72218016     1.10700
C812        C  0.42310141  0.58201162  0.77652568     1.00300
C813        C  0.49554758  0.01237313  0.79589614     1.00300
N814        N  0.42091382  0.93034535  0.66772530    -0.05000
N815        N  0.40465095  0.89519380  0.65244592    -0.60300
N816        N  0.36660265  0.97970917  0.64617348    -0.04300
N817        N  0.33115759  0.96402420  0.65408523    -0.57100
N818        N  0.38073831  0.96489136  0.59093696    -0.05600
N819        N  0.35444136  0.94109941  0.55953223    -0.59900
N820        N  0.40118666  0.94532502  0.71376745    -0.04600
N821        N  0.36956065  0.92055722  0.72453693    -0.57100
Mn822      Mn  0.44515951  0.96782035  0.58538000     1.20200
Mn823      Mn  0.40538471  0.00728260  0.72780731     1.10100
Cl824      Cl  0.49833686  0.50637809  0.65326285    -0.85100
C825        C  0.37236451  0.88918468  0.68823251     0.97300
C826        C  0.32400213  0.93959500  0.59935398     0.97100
C827        C  0.18355056  0.81284648  0.75153980     0.30900
C828        C  0.18590109  0.81014000  0.90762708     0.30900
C829        C  0.15103436  0.81695702  0.80263430    -0.05300
C830        C  0.18592648  0.77646429  0.78266193    -0.06100
C831        C  0.21543159  0.84084853  0.79434059    -0.05900
C832        C  0.15274756  0.81804969  0.87649490    -0.05300
C833        C  0.18725415  0.77533417  0.85709653    -0.06100
C834        C  0.21610469  0.83837482  0.86752655    -0.06000
C835        C  0.12796814  0.83683511  0.90291926    -0.31300
N836        N  0.11161148  0.84506695  0.85122959     0.15200
C837        C  0.12224486  0.82903508  0.79275929    -0.31300
H838        H  0.11207563  0.83029106  0.74358570     0.17100
C839        C  0.17414384  0.73878298  0.86966969    -0.30300
N840        N  0.16456965  0.71811787  0.81146652     0.13900
C841        C  0.17144586  0.74022171  0.75946205    -0.30300
C842        C  0.24876653  0.86070084  0.88776437    -0.30600
N843        N  0.26916508  0.87576624  0.83370212     0.14400
H844        H  0.25759188  0.86557611  0.93859931     0.17000
C845        C  0.24851372  0.86681041  0.77899206    -0.30600
H846        H  0.25753538  0.87842911  0.73121277     0.17000
H847        H  0.16362292  0.73072186  0.70857495     0.17000
H848        H  0.12444959  0.84697890  0.95460288     0.17100
H849        H  0.16816541  0.72838773  0.91919171     0.17000
C850        C  0.18770165  0.80993165  0.00078875     0.30900
C851        C  0.17994978  0.81474947  0.65699029     0.30900
C852        C  0.18544799  0.84484076  0.05079678    -0.05300
C853        C  0.15789122  0.78119653  0.04299878    -0.06100
C854        C  0.22209517  0.80345202  0.03160847    -0.05900
C855        C  0.16809484  0.84596133  0.61942022    -0.05300
C856        C  0.15479000  0.78178818  0.61453310    -0.06100
C857        C  0.21538337  0.81508062  0.61066552    -0.06000
C858        C  0.14420412  0.86788219  0.63930621    -0.31300
N859        N  0.13089909  0.87914655  0.58631412     0.15200
C860        C  0.17548339  0.87652144  0.04362491    -0.31300
H861        H  0.17138913  0.88627936  0.99649662     0.17100
C862        C  0.12339818  0.75610788  0.63313885    -0.30300
N863        N  0.10699000  0.73884569  0.57651934     0.13900
C864        C  0.12767075  0.75314120  0.02664484    -0.30300
C865        C  0.25065609  0.82795239  0.62692269    -0.30600
N866        N  0.27242029  0.83896901  0.57125758     0.14400
H867        H  0.25972276  0.82953076  0.67520660     0.17000
C868        C  0.25811234  0.81040162  0.00564024    -0.30600
H869        H  0.26746786  0.81229687  0.95306747     0.17000
H870        H  0.11818552  0.74500969  0.97629404     0.17000
H871        H  0.13598628  0.87527853  0.69240134     0.17100
H872        H  0.11311169  0.75113385  0.68466853     0.17000
C873        C  0.07702632  0.70684461  0.57267359    -0.15500
C874        C  0.05885636  0.69227652  0.62821904    -0.30700
H875        H  0.07215647  0.69187916  0.52332948     0.13500
H876        H  0.06276309  0.70672471  0.67771290     0.14100
C877        C  0.29523042  0.90449736  0.60195061    -0.15500
C878        C  0.30083557  0.87273666  0.57191971    -0.30700
H879        H  0.26942850  0.90449045  0.62939871     0.13500
H880        H  0.32624880  0.87307793  0.54260373     0.14100
C881        C  0.09889394  0.89426484  0.59087410    -0.15500
C882        C  0.09633736  0.92145865  0.55313896    -0.30700
H883        H  0.07681920  0.88435953  0.62869259     0.13500
H884        H  0.12049605  0.93346626  0.52122604     0.14100
C885        C  0.10791350  0.67129016  0.79599839    -0.15500
C886        C  0.14326878  0.68030497  0.80894639    -0.30700
H887        H  0.09617716  0.69290787  0.78518095     0.13500
H888        H  0.15475068  0.65976551  0.82515319     0.14100
C889        C  0.30787707  0.89385548  0.83381472    -0.15500
C890        C  0.33263985  0.87521206  0.84261507    -0.30700
H891        H  0.31717714  0.92275787  0.82495258     0.13500
H892        H  0.32317744  0.84590703  0.84641194     0.14100
C893        C  0.12293103  0.90476996  0.81106977    -0.15500
C894        C  0.10168439  0.87835008  0.84989261    -0.30700
H895        H  0.15150823  0.90629703  0.79959028     0.13500
H896        H  0.07328662  0.87721990  0.86310397     0.14100
C897        C  0.39992751  0.63118450  0.72487127    -0.15500
C898        C  0.39708806  0.60542792  0.77061758    -0.30700
H899        H  0.42236021  0.63536789  0.68650409     0.13500
H900        H  0.37223901  0.59876216  0.80331308     0.14100
C901        C  0.35277036  0.82222696  0.71587635    -0.15500
C902        C  0.34509598  0.85225483  0.69511924    -0.30700
H903        H  0.38071741  0.82371505  0.72472797     0.13500
H904        H  0.31733033  0.85142876  0.69255723     0.14100
C905        C  0.17604420  0.57585795  0.66392770    -0.15500
C906        C  0.18931340  0.59268458  0.72204952    -0.30700
H907        H  0.19229218  0.57921828  0.61620066     0.13500
H908        H  0.17253873  0.58838624  0.76944721     0.14100
C909        C  0.37802975  0.60936636  0.94545765    -0.15500
C910        C  0.34248048  0.59234557  0.95711483    -0.30700
H911        H  0.38676866  0.63901902  0.94535554     0.13500
H912        H  0.34874911  0.57213656  0.44600728     0.14100
C913        C  0.40842448  0.77881227  0.98353220    -0.15500
C914        C  0.43086629  0.78448042  0.92797249    -0.30700
H915        H  0.41342970  0.79824550  0.02791042     0.13500
H916        H  0.42730095  0.76439598  0.88504250     0.14100
C917        C  0.14608025  0.63123036  0.95731282    -0.15500
C918        C  0.15976493  0.66229855  0.99465349    -0.30700
H919        H  0.16404379  0.62057029  0.92041282     0.13500
H920        H  0.14310614  0.67062765  0.03711640     0.14100
C921        C  0.80274571  0.18239011  0.01831970     0.30900
C922        C  0.79434587  0.18793254  0.36247684     0.30900
C923        C  0.83441286  0.16915550  0.97324040    -0.05300
C924        C  0.77108465  0.15846558  0.97526727    -0.06100
C925        C  0.80766194  0.21930081  0.98427082    -0.05900
C926        C  0.82787226  0.18068096  0.39256318    -0.05300
C927        C  0.76461141  0.16174804  0.40872511    -0.06100
C928        C  0.79550925  0.22467495  0.40829610    -0.06000
C929        C  0.85762684  0.17154171  0.36116804    -0.31300
N930        N  0.87837813  0.16605087  0.40857772     0.15200
C931        C  0.85965456  0.15092970  0.98862965    -0.31300
H932        H  0.86480736  0.14624475  0.03890118     0.17100
C933        C  0.73312844  0.13460449  0.39599487    -0.30300
N934        N  0.73732878  0.10555835  0.92980686     0.13900
C935        C  0.74873877  0.12448170  0.98853766    -0.30300
C936        C  0.80727590  0.26021290  0.38972281    -0.30600
N937        N  0.83338748  0.27708103  0.95878737     0.14400
H938        H  0.81038396  0.26843768  0.33848989     0.17000
C939        C  0.82177605  0.25483608  0.00985395    -0.30600
H940        H  0.82581592  0.26390989  0.06233143     0.17000
H941        H  0.74398213  0.11314107  0.03746477     0.17000
H942        H  0.86334163  0.16813780  0.30708878     0.17100
H943        H  0.72269999  0.12455190  0.34696815     0.17000
C944        C  0.79323150  0.18536601  0.26857612     0.30900
C945        C  0.79741860  0.18287642  0.11228402     0.30900
C946        C  0.79551226  0.14941182  0.22380399    -0.05300
C947        C  0.76053380  0.19157208  0.23040429    -0.06100
C948        C  0.82507488  0.21165218  0.22836971    -0.05900
C949        C  0.79627214  0.14820376  0.14957022    -0.05300
C950        C  0.76255549  0.19037481  0.15483719    -0.06100
C951        C  0.82745229  0.21004580  0.15472685    -0.06000
C952        C  0.80356723  0.11635354  0.12543714    -0.31300
N953        N  0.81180520  0.10034693  0.17735347     0.15200
C954        C  0.80587011  0.11912217  0.23696191    -0.31300
H955        H  0.81362720  0.11397442  0.28518156     0.17100
C956        C  0.72686502  0.17452985  0.13734014    -0.30300
N957        N  0.70403311  0.16543219  0.19294827     0.13900
C958        C  0.72402390  0.17622860  0.24792218    -0.30300
C959        C  0.85983271  0.23430517  0.13668048    -0.30600
N960        N  0.87544769  0.25220598  0.19353862     0.14400
H961        H  0.87067418  0.23890086  0.08532688     0.17000
C962        C  0.85541163  0.23777152  0.24872291    -0.30600
H963        H  0.86216208  0.24668803  0.30049780     0.17000
H964        H  0.71369415  0.16902628  0.29811253     0.17000
H965        H  0.80897468  0.10851202  0.07249514     0.17100
H966        H  0.71938089  0.16412356  0.08675326     0.17000
N967        N  0.55996175  0.06541104  0.47918710    -0.05200
N968        N  0.58529849  0.09579229  0.49680112    -0.57300
N969        N  0.57674065  0.05384643  0.33520236    -0.04900
N970        N  0.61066950  0.07490335  0.32999842    -0.59500
N971        N  0.55402111  0.07439044  0.33948881    -0.04500
N972        N  0.57206744  0.10909611  0.33508860    -0.57300
N973        N  0.57526468  0.03784204  0.47268437    -0.04200
N974        N  0.60936326  0.04884405  0.48845852    -0.59800
C975        C  0.61571807  0.08499818  0.50282578     0.97000
C976        C  0.60730146  0.10925819  0.33018273     0.95500
N977        N  0.02510123  0.43722226  0.28294706    -0.05400
N978        N  0.03112370  0.41058457  0.24062762    -0.57900
N979        N  0.56119951  0.45390741  0.39756379    -0.03500
N980        N  0.58887494  0.43921623  0.38545025    -0.59200
N981        N  0.53037465  0.42769678  0.39990625    -0.05400
N982        N  0.53664897  0.39526139  0.39077662    -0.58200
N983        N  0.54287496  0.96881982  0.29698083    -0.03200
N984        N  0.53619258  0.99396258  0.26346333    -0.59300
Mn985      Mn  0.56350338  0.00140236  0.38475461     1.18400
C986        C  0.01345145  0.99608201  0.24165975     0.99000
C987        C  0.57301144  0.40283891  0.38265525     0.99700
N988        N  0.97246936  0.08000263  0.36365827    -0.05500
N989        N  0.96553366  0.11048691  0.34969034    -0.61800
N990        N  0.93238050  0.53502044  0.48633880    -0.04300
N991        N  0.89613217  0.53626257  0.03562098    -0.62400
N992        N  0.46487853  0.06002931  0.48521596    -0.05000
N993        N  0.56985824  0.94374797  0.89283839    -0.62000
N994        N  0.94318268  0.05190050  0.35868323    -0.03900
N995        N  0.91594951  0.06326790  0.34148396    -0.62700
Mn996      Mn  0.51122765  0.06415575  0.41700529     1.10700
C997        C  0.93035806  0.09949951  0.33468461     1.00300
C998        C  0.91488365  0.56249655  0.07904380     1.00300
N999        N  0.94151449  0.41507005  0.45088698    -0.05000
N1000       N  0.92929718  0.37965856  0.45682031    -0.60300
N1001       N  0.90602965  0.45272671  0.31935340    -0.04300
N1002       N  0.87062695  0.44180233  0.31580631    -0.57100
N1003       N  0.92076247  0.42512267  0.30954832    -0.05600
N1004       N  0.89453687  0.39428602  0.30109024    -0.59900
N1005       N  0.91465203  0.43043206  0.45146144    -0.04600
N1006       N  0.88349640  0.40413543  0.44976772    -0.57100
Mn1007     Mn  0.97746147  0.43456052  0.36075013     1.20200
Mn1008     Mn  0.92912069  0.48967791  0.40547190     1.10100
Cl1009     Cl  0.00628408  0.00527861  0.39953834    -0.85100
C1010       C  0.89317769  0.37323687  0.45786015     0.97300
C1011       C  0.86381877  0.40546883  0.30322117     0.97100
N1012       N  0.54969972  0.07396655  0.17395321    -0.05200
N1013       N  0.57001483  0.10832923  0.18306633    -0.57300
N1014       N  0.56006784  0.05512353  0.03233112    -0.04900
N1015       N  0.59029425  0.08209548  0.02154252    -0.59500
N1016       N  0.53210784  0.06971158  0.03646266    -0.04500
N1017       N  0.54293425  0.10476676  0.02517244    -0.57300
N1018       N  0.57082849  0.05170555  0.16854064    -0.04200
N1019       N  0.60520043  0.07047229  0.17501715    -0.59800
C1020       C  0.60462488  0.10580953  0.18395572     0.97000
C1021       C  0.57923219  0.11270889  0.01713649     0.96700
N1022       N  0.95498846  0.49895046  0.09749165    -0.05400
N1023       N  0.92480801  0.51541334  0.61799830    -0.57900
N1024       N  0.56464666  0.47588016  0.16343310    -0.03500
N1025       N  0.59341128  0.46698788  0.18084165    -0.59200
N1026       N  0.53634128  0.44679386  0.16106236    -0.05400
N1027       N  0.54593227  0.41764284  0.17527588    -0.58200
N1028       N  0.55209130  0.95447431  0.03064958    -0.03200
N1029       N  0.45404285  0.08523063  0.61839881    -0.59300
Mn1030     Mn  0.55867770  0.00536346  0.09460662     1.18400
C1031       C  0.93444246  0.07202880  0.61282229     0.99000
C1032       C  0.58137377  0.43074457  0.18911492     0.99700
N1033       N  0.95199712  0.07517412  0.09988615    -0.05500
N1034       N  0.93682263  0.10266058  0.10980370    -0.61800
N1035       N  0.99514519  0.46210443  0.16623759    -0.04300
N1036       N  0.00732729  0.43293717  0.14932380    -0.62400
N1037       N  0.46359834  0.04271892  0.21349537    -0.05000
N1038       N  0.48973862  0.03801447  0.24670451    -0.62000
N1039       N  0.92638832  0.04399154  0.09546136    -0.03900
N1040       N  0.89407651  0.04992527  0.10088231    -0.62700
Mn1041     Mn  0.49618908  0.05838129  0.12423082     1.10700
C1042       C  0.90078860  0.08631806  0.11068230     1.00300
C1043       C  0.04363026  0.44491874  0.15063713     1.00300
N1044       N  0.94495215  0.39379098  0.10908998    -0.05000
N1045       N  0.94411398  0.35986137  0.08811868    -0.60300
N1046       N  0.89035891  0.44018667  0.15405577    -0.04300
N1047       N  0.85667262  0.42381534  0.17489302    -0.57100
N1048       N  0.89695805  0.43080890  0.09042209    -0.05600
N1049       N  0.86783626  0.40731411  0.06765453    -0.59900
N1050       N  0.93719861  0.39726712  0.17440067    -0.04600
N1051       N  0.93144788  0.36535337  0.20014410    -0.57100
Mn1052     Mn  0.95809132  0.44453272  0.04869216     1.20200
Mn1053     Mn  0.93979566  0.45823582  0.21642801     1.10100
Cl1054     Cl  0.99794453  0.00978559  0.10794373    -0.85100
C1055       C  0.93549119  0.34237469  0.14537740     0.97300
C1056       C  0.84295386  0.40338731  0.11994623     0.97100
C1057       C  0.68188839  0.29790766  0.25827720     0.30900
C1058       C  0.68199658  0.30264335  0.41377854     0.30900
C1059       C  0.64758620  0.30209899  0.30455901    -0.05300
C1060       C  0.68742955  0.26491748  0.29562450    -0.06100
C1061       C  0.71092767  0.32912996  0.29694976    -0.05900
C1062       C  0.64772939  0.30436146  0.37816041    -0.05300
C1063       C  0.68686684  0.26695668  0.37077849    -0.06100
C1064       C  0.71112985  0.33150272  0.37078796    -0.06000
C1065       C  0.61501807  0.30998597  0.40253813    -0.31300
N1066       N  0.59640311  0.31362022  0.35026388     0.15200
C1067       C  0.61470410  0.30678364  0.29110511    -0.31300
H1068       H  0.60597859  0.30872645  0.24180720     0.17100
C1069       C  0.67122195  0.23134753  0.38824120    -0.30300
N1070       N  0.66278952  0.20863092  0.33196810     0.13900
C1071       C  0.67322124  0.22844793  0.27717628    -0.30300
C1072       C  0.74217720  0.35885538  0.38641884    -0.30600
N1073       N  0.76131236  0.37082647  0.32846979     0.14400
H1074       H  0.75077045  0.36945934  0.43632913     0.17000
C1075       C  0.74182312  0.35483603  0.27493146    -0.30600
H1076       H  0.74918860  0.36210090  0.22352582     0.17000
H1077       H  0.66683552  0.21763490  0.22642649     0.17000
H1078       H  0.60650563  0.31498214  0.45509271     0.17100
H1079       H  0.66084197  0.22377245  0.43852921     0.17000
C1080       C  0.68060191  0.30545259  0.50703431     0.30900
C1081       C  0.68045091  0.29670298  0.16503076     0.30900
C1082       C  0.67201241  0.33946507  0.54997727    -0.05300
C1083       C  0.65210338  0.27546665  0.54729334    -0.06100
C1084       C  0.71443843  0.30456439  0.54427352    -0.05900
C1085       C  0.67348903  0.33086016  0.13517031    -0.05300
C1086       C  0.65226698  0.26543949  0.12196439    -0.06100
C1087       C  0.71470718  0.29545182  0.11637191    -0.06000
C1088       C  0.65479066  0.35436729  0.16828868    -0.31300
N1089       N  0.63348027  0.36193589  0.12461743     0.15200
C1090       C  0.65386148  0.36292611  0.52919186    -0.31300
H1091       H  0.65067696  0.36682577  0.47760103     0.17100
C1092       C  0.62681028  0.23264701  0.13632733    -0.30300
N1093       N  0.61353040  0.21426992  0.07778544     0.13900
C1094       C  0.61777021  0.25696482  0.52977521    -0.30300
C1095       C  0.75059075  0.30657308  0.13020119    -0.30600
N1096       N  0.77120623  0.31728231  0.07297952     0.14400
H1097       H  0.76060167  0.31017058  0.17986568     0.17000
C1098       C  0.75035285  0.31808838  0.52288522    -0.30600
H1099       H  0.76086310  0.32227721  0.47173470     0.17000
H1100       H  0.60847245  0.25278903  0.47922099     0.17000
H1101       H  0.65295753  0.36130248  0.22200020     0.17100
H1102       H  0.61849817  0.22248190  0.18578840     0.17000
C1103       C  0.59134108  0.17683521  0.06987273    -0.15500
C1104       C  0.60263461  0.15099102  0.02818746    -0.30700
H1105       H  0.56568845  0.16917179  0.09991902     0.13500
H1106       H  0.62974121  0.15797436  0.00313912     0.14100
C1107       C  0.81442623  0.36943263  0.12546313    -0.15500
C1108       C  0.80350245  0.34720129  0.07057715    -0.30700
H1109       H  0.80261276  0.36289331  0.17557789     0.13500
H1110       H  0.81521924  0.35593975  0.02124209     0.14100
C1111       C  0.60420475  0.37894453  0.14076807    -0.15500
C1112       C  0.60694011  0.40776896  0.18643923    -0.30700
H1113       H  0.58148437  0.37140276  0.10836442     0.13500
H1114       H  0.63134681  0.41798919  0.21393412     0.14100
C1115       C  0.63711551  0.14296107  0.34206579    -0.15500
C1116       C  0.63317717  0.17580578  0.33070673    -0.30700
H1117       H  0.66285274  0.14057375  0.35703708     0.13500
H1118       H  0.60771060  0.17733811  0.31263827     0.14100
C1119       C  0.79769779  0.39445304  0.32481672    -0.15500
C1120       C  0.82650384  0.38126961  0.30401458    -0.30700
H1121       H  0.80183667  0.42293170  0.34399232     0.13500
H1122       H  0.82250029  0.35233569  0.28852869     0.14100
C1123       C  0.59264646  0.37502514  0.36817063    -0.15500
C1124       C  0.57535519  0.33940740  0.35686667    -0.30700
H1125       H  0.62212795  0.38361277  0.36830935     0.13500
H1126       H  0.54593878  0.32987090  0.35517545     0.14100
C1127       C  0.84038107  0.08294476  0.16568556    -0.15500
C1128       C  0.87350903  0.10325235  0.14422226    -0.30700
H1129       H  0.83363572  0.05326955  0.16329722     0.13500
H1130       H  0.87950519  0.13291104  0.14774885     0.14100
C1131       C  0.90314857  0.28620619  0.19733234    -0.15500
C1132       C  0.91729552  0.30351090  0.14187234    -0.30700
H1133       H  0.90910757  0.30031389  0.24729119     0.13500
H1134       H  0.91216680  0.29035760  0.09173567     0.14100
C1135       C  0.63816968  0.13752538  0.17983772    -0.15500
C1136       C  0.67146593  0.13479195  0.19245726    -0.30700
H1137       H  0.63518912  0.16374706  0.16900932     0.13500
H1138       H  0.67375928  0.10875908  0.20702758     0.14100
C1139       C  0.90701673  0.12425782  0.34070344    -0.15500
C1140       C  0.90739940  0.14868240  0.39454507    -0.30700
H1141       H  0.88508343  0.11781958  0.30689610     0.13500
H1142       H  0.93336549  0.13487617  0.90166251     0.14100
C1143       C  0.83893810  0.32122151  0.43800751    -0.15500
C1144       C  0.86875242  0.33696585  0.47155434    -0.30700
H1145       H  0.83160450  0.33607305  0.40023055     0.13500
H1146       H  0.87832464  0.32079417  0.50424472     0.14100
C1147       C  0.65314188  0.10951888  0.49690514    -0.15500
C1148       C  0.68070234  0.09756752  0.46390902    -0.30700
H1149       H  0.65795630  0.13792491  0.51625967     0.13500
H1150       H  0.67549062  0.07005494  0.43924566     0.14100
C1151       C  0.80017714  0.19103971  0.51829342     0.30900
C1152       C  0.80713051  0.18433797  0.86186820     0.30900
C1153       C  0.83118076  0.18197922  0.46594207    -0.05300
C1154       C  0.76760901  0.16335181  0.48207793    -0.06100
C1155       C  0.79886888  0.22663037  0.48251198    -0.05900
C1156       C  0.83710783  0.17007198  0.89880910    -0.05300
C1157       C  0.77342668  0.15933308  0.90091039    -0.06100
C1158       C  0.80966167  0.22051620  0.91045308    -0.06000
C1159       C  0.86524890  0.15292911  0.87790094    -0.31300
N1160       N  0.87771677  0.14021097  0.93126597     0.15200
C1161       C  0.86373552  0.17366531  0.47152754    -0.31300
H1162       H  0.87555784  0.17208805  0.51814925     0.17100
C1163       C  0.75281272  0.12563168  0.87733191    -0.30300
N1164       N  0.71666370  0.12158866  0.45533748     0.13900
C1165       C  0.73814613  0.13691646  0.50641141    -0.30300
C1166       C  0.82507513  0.25723368  0.89912995    -0.30600
N1167       N  0.81941403  0.28321354  0.44383136     0.14400
H1168       H  0.83227551  0.26859229  0.85063387     0.17000
C1169       C  0.81462461  0.26363535  0.49947554    -0.30600
H1170       H  0.82365817  0.27536103  0.54859132     0.17000
H1171       H  0.73268257  0.12860996  0.55754268     0.17000
H1172       H  0.87577627  0.14977472  0.82636690     0.17100
H1173       H  0.75123950  0.11529059  0.82479960     0.17000
C1174       C  0.80299760  0.18622101  0.76813085     0.30900
C1175       C  0.80046848  0.18987575  0.61254362     0.30900
C1176       C  0.80428162  0.15265261  0.71717480    -0.05300
C1177       C  0.76756274  0.19154507  0.73760240    -0.06100
C1178       C  0.83240195  0.21536922  0.72678475    -0.05900
C1179       C  0.80450535  0.15442032  0.64306295    -0.05300
C1180       C  0.76668121  0.19445354  0.66337231    -0.06100
C1181       C  0.83092610  0.21729489  0.65389100    -0.06000
C1182       C  0.82288027  0.12941045  0.61590344    -0.31300
N1183       N  0.83221771  0.11337240  0.66671380     0.15200
C1184       C  0.81843132  0.12500224  0.72679820    -0.31300
H1185       H  0.82478754  0.11869975  0.77505695     0.17100
C1186       C  0.73005739  0.18198639  0.65011303    -0.30300
N1187       N  0.70959434  0.16777765  0.70516233     0.13900
C1188       C  0.73162202  0.17398842  0.75738248    -0.30300
C1189       C  0.86061800  0.24487939  0.63476491    -0.30600
N1190       N  0.87937819  0.26001608  0.69004485     0.14400
H1191       H  0.86752334  0.25360481  0.58421534     0.17000
C1192       C  0.86359528  0.24137163  0.74452403    -0.30600
H1193       H  0.87437078  0.24669458  0.79399001     0.17000
H1194       H  0.72321474  0.16208411  0.80488868     0.17000
H1195       H  0.83299222  0.12645176  0.56392531     0.17100
H1196       H  0.71948345  0.17931001  0.60079114     0.17000
N1197       N  0.60148640  0.01475657  0.94655560    -0.05200
N1198       N  0.62568425  0.02889999  0.99150685    -0.57300
N1199       N  0.59040966  0.04300205  0.81622375    -0.04900
N1200       N  0.61792943  0.07113851  0.79795675    -0.59500
N1201       N  0.56960239  0.05534098  0.86342594    -0.04500
N1202       N  0.58112606  0.09117045  0.87636415    -0.57300
N1203       N  0.61730550  0.00219133  0.89156421    -0.04200
N1204       N  0.65242687  0.00824875  0.89710961    -0.59800
C1205       C  0.65746314  0.02569453  0.95951649     0.97000
C1206       C  0.61131254  0.10114941  0.83514999     0.95500
N1207       N  0.02376146  0.44921369  0.78346949    -0.05400
N1208       N  0.03434175  0.42263905  0.74715563    -0.57900
N1209       N  0.56696928  0.47604409  0.87361611    -0.03500
N1210       N  0.59343246  0.46817335  0.90279246    -0.59200
N1211       N  0.53726626  0.44767500  0.87698386    -0.05400
N1212       N  0.54407281  0.42052773  0.90548558    -0.58200
N1213       N  0.54540713  0.96841737  0.71356440    -0.03200
N1214       N  0.54410253  0.00235482  0.72044348    -0.59300
Mn1215     Mn  0.58001017  0.97518998  0.80101869     1.18400
C1216       C  0.00722261  0.99065203  0.75057581     0.99000
C1217       C  0.57915042  0.43329143  0.92054492     0.99700
N1218       N  0.98494213  0.05545509  0.96555616    -0.05500
N1219       N  0.97079686  0.08333895  0.95839344    -0.61800
N1220       N  0.92236353  0.53444814  0.98927770    -0.04300
N1221       N  0.90508415  0.54176814  0.52538059    -0.62400
N1222       N  0.54083100  0.95680744  0.89321092    -0.05000
N1223       N  0.45367777  0.08994423  0.49972789    -0.62000
N1224       N  0.95945668  0.02420916  0.96691937    -0.03900
N1225       N  0.92734267  0.03106119  0.96169812    -0.62700
Mn1226     Mn  0.53971797  0.01494873  0.93814504     1.10700
C1227       C  0.93438982  0.06804752  0.95578255     1.00300
C1228       C  0.92303793  0.56941902  0.56698631     1.00300
N1229       N  0.93707777  0.41618667  0.94608113    -0.05000
N1230       N  0.92349500  0.38031013  0.94369289    -0.60300
N1231       N  0.90317373  0.45538039  0.81643726    -0.04300
N1232       N  0.86784971  0.44302685  0.81268983    -0.57100
N1233       N  0.91924789  0.42877991  0.80615428    -0.05600
N1234       N  0.89400829  0.39724574  0.79650325    -0.59900
N1235       N  0.91089002  0.43276870  0.94926965    -0.04600
N1236       N  0.87939817  0.40781942  0.94180764    -0.57100
Mn1237     Mn  0.97590347  0.44023315  0.86046916     1.20200
Mn1238     Mn  0.92473590  0.49108120  0.90519327     1.10100
Cl1239     Cl  0.01894072  0.99514584  0.87528213    -0.85100
C1240       C  0.88751485  0.37553528  0.94213362     0.97300
C1241       C  0.86243014  0.40688832  0.79876346     0.97100
N1242       N  0.55214279  0.09123942  0.71045154    -0.05200
N1243       N  0.57972271  0.11941268  0.72742066    -0.57300
N1244       N  0.52588523  0.11131106  0.58007018    -0.04900
N1245       N  0.53273699  0.13415635  0.53178369    -0.59500
N1246       N  0.51367851  0.12636529  0.63661296    -0.04500
N1247       N  0.51300636  0.15992585  0.62841531    -0.57300
N1248       N  0.56378476  0.07159336  0.66007752    -0.04200
N1249       N  0.59922186  0.08438485  0.64554147    -0.59800
C1250       C  0.60926608  0.11397873  0.68883854     0.97000
C1251       C  0.52559377  0.16472147  0.56290940     0.96700
N1252       N  0.95553798  0.50507918  0.60574139    -0.05400
N1253       N  0.92378923  0.50716940  0.11372725    -0.57900
N1254       N  0.55383878  0.48213174  0.52927961    -0.03500
N1255       N  0.58528724  0.47338791  0.52578544    -0.59200
N1256       N  0.52629242  0.45223059  0.53112296    -0.05400
N1257       N  0.53934366  0.42284561  0.53068679    -0.58200
N1258       N  0.46551346  0.05540319  0.62108445    -0.03200
N1259       N  0.58064183  0.94220157  0.00947990    -0.59300
Mn1260     Mn  0.52371045  0.04932874  0.58107954     1.18400
C1261       C  0.08454570  0.94528425  0.96341685     0.99000
C1262       C  0.57647218  0.43648888  0.52673885     0.99700
N1263       N  0.95568100  0.08381091  0.74857293    -0.05500
N1264       N  0.94741843  0.11505517  0.74469821    -0.61800
N1265       N  0.99908511  0.46756632  0.66732008    -0.04300
N1266       N  0.01176699  0.43887034  0.64959519    -0.62400
N1267       N  0.47513870  0.05660244  0.80318906    -0.05000
N1268       N  0.50535187  0.04812333  0.80837025    -0.62000
N1269       N  0.92521261  0.05647876  0.74977970    -0.03900
N1270       N  0.89670518  0.06907120  0.75015784    -0.62700
Mn1271     Mn  0.49263389  0.09165642  0.72535957     1.10700
C1272       C  0.91065247  0.10511847  0.74312393     1.00300
C1273       C  0.04823740  0.45208275  0.65024813     1.00300
N1274       N  0.94816824  0.40369685  0.61021294    -0.05000
N1275       N  0.94763215  0.36990821  0.58819568    -0.60300
N1276       N  0.89277063  0.44929972  0.65664870    -0.04300
N1277       N  0.85846387  0.43530369  0.67735885    -0.57100
N1278       N  0.89804725  0.44271781  0.59128837    -0.05600
N1279       N  0.86698678  0.42325981  0.56777107    -0.59900
N1280       N  0.94082628  0.40611197  0.67576040    -0.04600
N1281       N  0.93636987  0.37397191  0.70012774    -0.57100
Mn1282     Mn  0.95594260  0.45009845  0.54706200     1.20200
Mn1283     Mn  0.94224229  0.46517343  0.71996774     1.10100
Cl1284     Cl  0.98192420  0.01722753  0.63943155    -0.85100
C1285       C  0.93999546  0.35149201  0.64458415     0.97300
C1286       C  0.84269985  0.41825424  0.62159324     0.97100
C1287       C  0.67627938  0.30328549  0.75866435     0.30900
C1288       C  0.67985399  0.30139366  0.91502133     0.30900
C1289       C  0.64617418  0.31340978  0.81060284    -0.05300
C1290       C  0.67324082  0.26537388  0.79206061    -0.06100
C1291       C  0.71021351  0.32767355  0.79833811    -0.05900
C1292       C  0.64995575  0.31579411  0.88439887    -0.05300
C1293       C  0.67636318  0.26501863  0.86548686    -0.06100
C1294       C  0.71235365  0.32626368  0.87163960    -0.06000
C1295       C  0.63768712  0.34621754  0.90616388    -0.31300
N1296       N  0.61843041  0.35410823  0.85870618     0.15200
C1297       C  0.62261778  0.33339350  0.80165636    -0.31300
H1298       H  0.60900254  0.33292323  0.75464419     0.17100
C1299       C  0.66686869  0.22834136  0.87946381    -0.30300
N1300       N  0.65286544  0.20651514  0.82503345     0.13900
C1301       C  0.65588639  0.22866670  0.77305021    -0.30300
C1302       C  0.74359307  0.35296890  0.88862604    -0.30600
N1303       N  0.76084752  0.36845700  0.83207138     0.14400
H1304       H  0.75248014  0.36228656  0.93876493     0.17000
C1305       C  0.73942996  0.35623267  0.77978352    -0.30600
H1306       H  0.74379898  0.36889999  0.73233281     0.17000
H1307       H  0.64320498  0.21948666  0.72586490     0.17000
H1308       H  0.64768179  0.36519040  0.94715332     0.17100
H1309       H  0.66756278  0.21817450  0.92790951     0.17000
C1310       C  0.67869158  0.29907154  0.00975837     0.30900
C1311       C  0.67701048  0.30780010  0.66387985     0.30900
C1312       C  0.66896155  0.33019135  0.06197695    -0.05300
C1313       C  0.65197808  0.26682887  0.04822477    -0.06100
C1314       C  0.71410095  0.29679781  0.04276572    -0.05900
C1315       C  0.66854549  0.34087836  0.62510422    -0.05300
C1316       C  0.65051221  0.27671021  0.62200855    -0.06100
C1317       C  0.71307331  0.30559053  0.61853584    -0.06000
C1318       C  0.64487384  0.36385525  0.63963234    -0.31300
N1319       N  0.63575963  0.37610942  0.58287855     0.15200
C1320       C  0.63935423  0.34480776  0.06378405    -0.31300
H1321       H  0.61848898  0.33708075  0.02807072     0.17100
C1322       C  0.61516445  0.25990707  0.64168236    -0.30300
N1323       N  0.59609858  0.24785168  0.58648930     0.13900
C1324       C  0.62652803  0.23576656  0.02595500    -0.30300
C1325       C  0.74911568  0.31939234  0.63325294    -0.30600
N1326       N  0.77040018  0.33009574  0.57675268     0.14400
H1327       H  0.75969894  0.32212176  0.68212912     0.17000
C1328       C  0.75004184  0.30816515  0.01989879    -0.30600
H1329       H  0.76030262  0.31287193  0.96851014     0.17000
H1330       H  0.61726536  0.22909534  0.97547204     0.17000
H1331       H  0.63378387  0.37145431  0.69089306     0.17100
H1332       H  0.60340267  0.25865774  0.69337788     0.17000
C1333       C  0.55906046  0.22690114  0.58990299    -0.15500
C1334       C  0.54765148  0.20005732  0.54220133    -0.30700
H1335       H  0.54414334  0.22629446  0.63934487     0.13500
H1336       H  0.56313493  0.19968567  0.49360106     0.14100
C1337       C  0.81234824  0.38491408  0.62655069    -0.15500
C1338       C  0.80252421  0.36067183  0.57341714    -0.30700
H1339       H  0.79840634  0.38011282  0.67597778     0.13500
H1340       H  0.81567537  0.36759542  0.52437052     0.14100
C1341       C  0.60474596  0.39109678  0.57699049    -0.15500
C1342       C  0.60528888  0.41650608  0.53256981    -0.30700
H1343       H  0.58025177  0.38118219  0.60959837     0.13500
H1344       H  0.63084183  0.42700023  0.50307710     0.14100
C1345       C  0.63704579  0.13922904  0.83963559    -0.15500
C1346       C  0.62720611  0.17019719  0.83024083    -0.30700
H1347       H  0.66545088  0.14128356  0.84510516     0.13500
H1348       H  0.59896642  0.16769647  0.82268901     0.14100
C1349       C  0.79664224  0.39316183  0.82787362    -0.15500
C1350       C  0.82573768  0.38138635  0.80263414    -0.30700
H1351       H  0.80002010  0.42134458  0.84791793     0.13500
H1352       H  0.82240634  0.35270994  0.78554779     0.14100
C1353       C  0.60203640  0.40787321  0.91598608    -0.15500
C1354       C  0.59784641  0.38072125  0.86613730    -0.30700
H1355       H  0.62333970  0.41277091  0.95091294     0.13500
H1356       H  0.57798738  0.37863422  0.82870599     0.14100
C1357       C  0.86454368  0.10192434  0.66467377    -0.15500
C1358       C  0.89211310  0.12279860  0.70088585    -0.30700
H1359       H  0.86188653  0.07295498  0.65229982     0.13500
H1360       H  0.89513135  0.15195221  0.71098351     0.14100
C1361       C  0.90637055  0.29470080  0.69526102    -0.15500
C1362       C  0.92209043  0.31216388  0.64038167    -0.30700
H1363       H  0.91110894  0.30865322  0.74537632     0.13500
H1364       H  0.91856996  0.29850272  0.59025557     0.14100
C1365       C  0.64487149  0.14242237  0.68025588    -0.15500
C1366       C  0.67586284  0.13856612  0.70250035    -0.30700
H1367       H  0.64497904  0.16792300  0.65988687     0.13500
H1368       H  0.67475122  0.11354368  0.72506879     0.14100
C1369       C  0.90464337  0.08863173  0.95426944    -0.15500
C1370       C  0.90773814  0.12191902  0.92820398    -0.30700
H1371       H  0.87780808  0.07452374  0.97503218     0.13500
H1372       H  0.92691049  0.15164669  0.43252926     0.14100
C1373       C  0.85961928  0.31222509  0.96727964    -0.15500
C1374       C  0.86158886  0.33963466  0.92858408    -0.30700
H1375       H  0.87714156  0.31721366  0.00923945     0.13500
H1376       H  0.84175922  0.33651960  0.89128796     0.14100
C1377       C  0.69034735  0.05485731  0.97283869    -0.15500
C1378       C  0.71320959  0.06959992  0.92163447    -0.30700
H1379       H  0.69143987  0.06898870  0.02302088     0.13500
H1380       H  0.71011575  0.05666086  0.87046922     0.14100
C1381       C  0.80535843  0.69759103  0.05304145     0.30900
C1382       C  0.80773329  0.69977989  0.40023173     0.30900
C1383       C  0.80292023  0.66216576  0.00504129    -0.05300
C1384       C  0.77317740  0.70849877  0.01748641    -0.06100
C1385       C  0.83939451  0.72263536  0.01243840    -0.05900
C1386       C  0.83719169  0.68499166  0.42887473    -0.05300
C1387       C  0.77443453  0.67787813  0.44797950    -0.06100
C1388       C  0.81622989  0.73746462  0.44892712    -0.06000
C1389       C  0.87202456  0.68942528  0.40134389    -0.31300
N1390       N  0.89355528  0.68525354  0.44779412     0.15200
C1391       C  0.80254602  0.62719776  0.01565108    -0.31300
H1392       H  0.80566485  0.61741930  0.06319307     0.17100
C1393       C  0.73881275  0.65750768  0.43935803    -0.30300
N1394       N  0.71644996  0.69002901  0.97426669     0.13900
C1395       C  0.73502204  0.69664875  0.03152083    -0.30300
C1396       C  0.83468847  0.77320171  0.43501193    -0.30600
N1397       N  0.88995805  0.76473564  0.97700382     0.14400
H1398       H  0.83191763  0.78688888  0.39173577     0.17000
C1399       C  0.87183833  0.74689635  0.03107706    -0.30600
H1400       H  0.88198430  0.75172141  0.08093092     0.17000
H1401       H  0.72118019  0.69160976  0.08033103     0.17000
H1402       H  0.88151974  0.69469116  0.34943262     0.17100
H1403       H  0.72856311  0.64231621  0.39374804     0.17000
C1404       C  0.80768399  0.69811685  0.30449998     0.30900
C1405       C  0.80744027  0.69595156  0.14664682     0.30900
C1406       C  0.82579541  0.67073264  0.25639418    -0.05300
C1407       C  0.77085810  0.68799660  0.26635652    -0.06100
C1408       C  0.82686101  0.73305232  0.26350003    -0.05900
C1409       C  0.82814493  0.67141628  0.18188972    -0.05300
C1410       C  0.77146487  0.68431438  0.19193556    -0.06100
C1411       C  0.82307921  0.73269275  0.19058313    -0.06000
C1412       C  0.85087378  0.64891330  0.15886521    -0.31300
N1413       N  0.85906619  0.63250293  0.21149345     0.15200
C1414       C  0.84271649  0.64437735  0.26942060    -0.31300
H1415       H  0.84425495  0.63518913  0.31841058     0.17100
C1416       C  0.73775052  0.66364823  0.17615709    -0.30300
N1417       N  0.71525150  0.66085906  0.23247080     0.13900
C1418       C  0.73446971  0.67666929  0.28647225    -0.30300
C1419       C  0.83829705  0.76790423  0.17339275    -0.30600
N1420       N  0.85732429  0.78711840  0.22505568     0.14400
H1421       H  0.83770251  0.77838111  0.12521502     0.17000
C1422       C  0.85286906  0.76556505  0.27720516    -0.30600
H1423       H  0.87010965  0.77198807  0.31917626     0.17000
H1424       H  0.72225891  0.68148299  0.33569615     0.17000
H1425       H  0.86151386  0.64537586  0.10701663     0.17100
H1426       H  0.73089453  0.64809682  0.12826468     0.17000
N1427       N  0.56825193  0.57151618  0.48225022    -0.05200
N1428       N  0.59620305  0.60026177  0.49709520    -0.57300
N1429       N  0.57834745  0.57000806  0.34819328    -0.04900
N1430       N  0.61228213  0.59170997  0.34819763    -0.59500
N1431       N  0.55556417  0.59070272  0.36056996    -0.04500
N1432       N  0.57369698  0.62595517  0.36510883    -0.57300
N1433       N  0.58161514  0.54267569  0.46792663    -0.04200
N1434       N  0.61665672  0.55125968  0.47642542    -0.59800
C1435       C  0.62582482  0.58704624  0.49504989     0.97000
C1436       C  0.60910889  0.62653056  0.35818663     0.95500
N1437       N  0.02580058  0.95343127  0.28359180    -0.05400
N1438       N  0.00109726  0.96065481  0.25059588    -0.57900
N1439       N  0.56004570  0.95146169  0.42934072    -0.03500
N1440       N  0.58912124  0.93916420  0.42500050    -0.59200
N1441       N  0.53060512  0.92391644  0.43055686    -0.05400
N1442       N  0.53935212  0.89269501  0.42726105    -0.58200
N1443       N  0.54300322  0.48289598  0.28985611    -0.03200
N1444       N  0.53692829  0.51249420  0.27178345    -0.59300
Mn1445     Mn  0.56509400  0.51065777  0.37797411     1.18400
C1446       C  0.05936382  0.42952412  0.20151000     0.99000
C1447       C  0.57586221  0.90263470  0.42301617     0.99700
N1448       N  0.95964411  0.57541176  0.37757293    -0.05500
N1449       N  0.95318339  0.60760534  0.38256108    -0.61800
N1450       N  0.94400298  0.04447340  0.48237048    -0.04300
N1451       N  0.04226101  0.94067792  0.88530180    -0.62400
N1452       N  0.46902423  0.56490740  0.51369207    -0.05000
N1453       N  0.50623914  0.55474714  0.97247515    -0.62000
N1454       N  0.92888892  0.54881662  0.37995171    -0.03900
N1455       N  0.90097976  0.56305591  0.38933855    -0.62700
Mn1456     Mn  0.51357337  0.57419044  0.43915286     1.10700
C1457       C  0.91673817  0.59935517  0.38950871     1.00300
C1458       C  0.07772365  0.95427743  0.89618491     1.00300
N1459       N  0.95674807  0.92916329  0.46216538    -0.05000
N1460       N  0.94204631  0.89443747  0.47408268    -0.60300
N1461       N  0.92266770  0.95895955  0.33211211    -0.04300
N1462       N  0.88724387  0.94795459  0.32820570    -0.57100
N1463       N  0.93714514  0.93128155  0.32782615    -0.05600
N1464       N  0.91022718  0.90043903  0.32577694    -0.59900
N1465       N  0.93145366  0.94719416  0.46356174    -0.04600
N1466       N  0.89955200  0.92248066  0.46728756    -0.57100
Mn1467     Mn  0.99118643  0.93732204  0.37263831     1.20200
Mn1468     Mn  0.93809320  0.00007792  0.40933401     1.10100
Cl1469     Cl  0.99511709  0.50066393  0.38582615    -0.85100
C1470       C  0.90609904  0.89051471  0.47746962     0.97300
C1471       C  0.87932875  0.91156977  0.32582690     0.97100
N1472       N  0.55935000  0.59075993  0.21255933    -0.05200
N1473       N  0.58306754  0.62343484  0.21991486    -0.57300
N1474       N  0.56961405  0.58145185  0.07514447    -0.04900
N1475       N  0.60064889  0.60782042  0.07505572    -0.59500
N1476       N  0.54251203  0.59715453  0.07884425    -0.04500
N1477       N  0.55469855  0.63257691  0.07318953    -0.57300
N1478       N  0.57744662  0.56543459  0.20379940    -0.04200
N1479       N  0.61257540  0.58032383  0.20769699    -0.59800
C1480       C  0.61588413  0.61628892  0.21637814     0.97000
C1481       C  0.59073869  0.63923398  0.07309422     0.96700
N1482       N  0.03800926  0.95189582  0.02102156    -0.05400
N1483       N  0.92095122  0.03542743  0.61812970    -0.57900
N1484       N  0.55855928  0.96044186  0.15638474    -0.03500
N1485       N  0.58911260  0.95572863  0.17395292    -0.59200
N1486       N  0.53186002  0.92967330  0.16065089    -0.05400
N1487       N  0.54501787  0.90380750  0.18006351    -0.58200
N1488       N  0.55279843  0.49156868  0.03409744    -0.03200
N1489       N  0.48130269  0.57175204  0.64599311    -0.59300
Mn1490     Mn  0.56513957  0.52726213  0.12009823     1.18400
C1491       C  0.93464451  0.55265979  0.62176650     0.99000
C1492       C  0.58065535  0.92051662  0.18855396     0.99700
N1493       N  0.95979971  0.54577851  0.25039358    -0.05500
N1494       N  0.94670637  0.57484478  0.24838437    -0.61800
N1495       N  0.94660550  0.03013803  0.22286918    -0.04300
N1496       N  0.95523020  0.00511165  0.25234001    -0.62400
N1497       N  0.47051016  0.57019871  0.25117208    -0.05000
N1498       N  0.49467911  0.56251397  0.28485668    -0.62000
N1499       N  0.93205821  0.51599918  0.25208354    -0.03900
N1500       N  0.90052680  0.52450905  0.25273032    -0.62700
Mn1501     Mn  0.50613626  0.58513373  0.16510611     1.10700
C1502       C  0.90969330  0.56131966  0.25009684     1.00300
C1503       C  0.98984906  0.01850257  0.26435294     1.00300
N1504       N  0.94997869  0.92472073  0.17039447    -0.05000
N1505       N  0.93620086  0.88948058  0.17788326    -0.60300
N1506       N  0.91810697  0.95767680  0.04587460    -0.04300
N1507       N  0.88320125  0.94308536  0.03646054    -0.57100
N1508       N  0.93586757  0.93192130  0.04002925    -0.05600
N1509       N  0.91128245  0.89946871  0.03098957    -0.59900
N1510       N  0.92436066  0.94200610  0.17813117    -0.04600
N1511       N  0.89231998  0.91784470  0.18711347    -0.57100
Mn1512     Mn  0.99110040  0.94001833  0.09191827     1.20200
Mn1513     Mn  0.92986579  0.99507989  0.13369638     1.10100
Cl1514     Cl  0.99236020  0.49941126  0.13594754    -0.85100
C1515       C  0.90032798  0.88552282  0.18818631     0.97300
C1516       C  0.87892762  0.90681857  0.02700595     0.97100
C1517       C  0.69747512  0.81458094  0.26239039     0.30900
C1518       C  0.69247693  0.81914899  0.41955693     0.30900
C1519       C  0.66176336  0.81867533  0.30581723    -0.05300
C1520       C  0.70067492  0.78062016  0.30165523    -0.06100
C1521       C  0.72510441  0.84515166  0.30408487    -0.05900
C1522       C  0.65964517  0.81941933  0.37972542    -0.05300
C1523       C  0.69880896  0.78304713  0.37749075    -0.06100
C1524       C  0.72229123  0.84810880  0.37826247    -0.06000
C1525       C  0.62489373  0.81807683  0.40177325    -0.31300
N1526       N  0.60678736  0.82225426  0.34930067     0.15200
C1527       C  0.62806624  0.82106443  0.29076373    -0.31300
H1528       H  0.62037456  0.82434247  0.24128794     0.17100
C1529       C  0.68306494  0.74722641  0.39501580    -0.30300
N1530       N  0.67285726  0.72429112  0.33961834     0.13900
C1531       C  0.68460543  0.74378713  0.28419365    -0.30300
C1532       C  0.75371575  0.87384533  0.39683461    -0.30600
N1533       N  0.77606664  0.88328294  0.34084447     0.14400
H1534       H  0.76063278  0.88439916  0.44752696     0.17000
C1535       C  0.75873433  0.86741709  0.28498318    -0.30600
H1536       H  0.77041994  0.87149628  0.23378204     0.17000
H1537       H  0.67792292  0.73272607  0.23362697     0.17000
H1538       H  0.61452468  0.81897215  0.45426051     0.17100
H1539       H  0.67471845  0.73933565  0.44580466     0.17000
C1540       C  0.68816578  0.82449011  0.51396940     0.30900
C1541       C  0.70063439  0.81576458  0.16784368     0.30900
C1542       C  0.67394603  0.85659870  0.55861700    -0.05300
C1543       C  0.66293229  0.79269540  0.55511276    -0.06100
C1544       C  0.72315904  0.82801761  0.55203992    -0.05900
C1545       C  0.69426945  0.85007999  0.13814956    -0.05300
C1546       C  0.67180839  0.78686099  0.12486368    -0.06100
C1547       C  0.73565711  0.81404273  0.11710321    -0.06000
C1548       C  0.67649253  0.87449538  0.16939613    -0.31300
N1549       N  0.66397800  0.89013056  0.12195557     0.15200
C1550       C  0.64856231  0.87529539  0.54365863    -0.31300
H1551       H  0.64125139  0.87726311  0.49346042     0.17100
C1552       C  0.64347365  0.75743717  0.14201619    -0.30300
N1553       N  0.62684727  0.74144226  0.08537160     0.13900
C1554       C  0.63391406  0.76443046  0.53639057    -0.30300
C1555       C  0.77293217  0.82193636  0.12586747    -0.30600
N1556       N  0.79285461  0.82787743  0.06521764     0.14400
H1557       H  0.78479298  0.82564808  0.17399985     0.17000
C1558       C  0.75949677  0.83441274  0.53123599    -0.30600
H1559       H  0.77133483  0.83605920  0.47997316     0.17000
H1560       H  0.62499352  0.75668189  0.48568721     0.17000
H1561       H  0.67017081  0.87832871  0.22313043     0.17100
H1562       H  0.63485396  0.74824989  0.19190999     0.17000
C1563       C  0.60229194  0.70578234  0.08013344    -0.15500
C1564       C  0.61460241  0.67631417  0.08374888    -0.30700
H1565       H  0.57459695  0.70287157  0.06712107     0.13500
H1566       H  0.64289772  0.67989893  0.09231441     0.14100
C1567       C  0.84160610  0.88061208  0.03057440    -0.15500
C1568       C  0.83135447  0.84716804  0.05579743    -0.30700
H1569       H  0.81998718  0.89177117  0.01804203     0.13500
H1570       H  0.85171437  0.83573721  0.07264034     0.14100
C1571       C  0.63782749  0.91092101  0.13551203    -0.15500
C1572       C  0.60858757  0.90036689  0.17960604    -0.30700
H1573       H  0.64025830  0.93372774  0.10479817     0.13500
H1574       H  0.60389038  0.87532582  0.20487949     0.14100
C1575       C  0.64037721  0.66055068  0.36647457    -0.15500
C1576       C  0.64125495  0.69243208  0.34034152    -0.30700
H1577       H  0.66452882  0.65826483  0.38747462     0.13500
H1578       H  0.61812378  0.69331370  0.31332113     0.14100
C1579       C  0.81334313  0.90444765  0.34081456    -0.15500
C1580       C  0.84116496  0.88856178  0.33151668    -0.30700
H1581       H  0.81874081  0.93407885  0.34744702     0.13500
H1582       H  0.83560406  0.85900370  0.32725961     0.14100
C1583       C  0.59724437  0.87931208  0.38906194    -0.15500
C1584       C  0.58289373  0.84525387  0.36201150    -0.30700
H1585       H  0.62667804  0.89003191  0.38813302     0.13500
H1586       H  0.55365580  0.83349156  0.36092033     0.14100
C1587       C  0.88585316  0.61132209  0.20864444    -0.15500
C1588       C  0.88211892  0.58291530  0.24782555    -0.30700
H1589       H  0.90983826  0.61878064  0.17377435     0.13500
H1590       H  0.85671379  0.57375414  0.27813515     0.14100
C1591       C  0.88309739  0.82215836  0.22013022    -0.15500
C1592       C  0.87347434  0.85035170  0.19910864    -0.30700
H1593       H  0.91073469  0.82565259  0.23419226     0.13500
H1594       H  0.84532905  0.84780052  0.19214686     0.14100
C1595       C  0.65140249  0.64350741  0.21363124    -0.15500
C1596       C  0.68006116  0.63570665  0.23613059    -0.30700
H1597       H  0.65397071  0.67041440  0.19737685     0.13500
H1598       H  0.67698445  0.60978288  0.25779637     0.14100
C1599       C  0.89789580  0.62570858  0.41635547    -0.15500
C1600       C  0.91540673  0.66093750  0.42947777    -0.30700
H1601       H  0.86838116  0.61631023  0.42501554     0.13500
H1602       H  0.82018880  0.55780081  0.93316379     0.14100
C1603       C  0.88462691  0.82366636  0.48597171    -0.15500
C1604       C  0.87874818  0.85461094  0.46855883    -0.30700
H1605       H  0.90972562  0.82513058  0.50842349     0.13500
H1606       H  0.85236520  0.85384041  0.45122178     0.14100
C1607       C  0.66379461  0.60826435  0.47957363    -0.15500
C1608       C  0.68028141  0.63980184  0.51267960    -0.30700
H1609       H  0.68002250  0.59536089  0.44286666     0.13500
H1610       H  0.66545287  0.65122951  0.55442860     0.14100
C1611       C  0.81299616  0.69873218  0.55563005     0.30900
C1612       C  0.80816168  0.69973863  0.89804693     0.30900
C1613       C  0.83912945  0.68285789  0.50251504    -0.05300
C1614       C  0.77645202  0.68126042  0.52143560    -0.06100
C1615       C  0.82214740  0.73612180  0.52140200    -0.05900
C1616       C  0.80367040  0.66326834  0.93169870    -0.05300
C1617       C  0.77579344  0.71000912  0.94230670    -0.06100
C1618       C  0.84017431  0.72405003  0.93939159    -0.06000
C1619       C  0.80197514  0.62886365  0.90473367    -0.31300
N1620       N  0.80426965  0.60814671  0.95483434     0.15200
C1621       C  0.87502593  0.68418589  0.50890599    -0.31300
H1622       H  0.88852124  0.68798045  0.55512414     0.17100
C1623       C  0.74070098  0.69992955  0.92163235    -0.30300
N1624       N  0.71876849  0.65616268  0.49975211     0.13900
C1625       C  0.74113113  0.67230443  0.54866757    -0.30300
C1626       C  0.87144040  0.75044762  0.92103121    -0.30600
N1627       N  0.85656237  0.78948662  0.48534434     0.14400
H1628       H  0.87902738  0.75992997  0.87086402     0.17000
C1629       C  0.85120853  0.76612814  0.53415166    -0.30600
H1630       H  0.86840559  0.76979031  0.57566484     0.17000
H1631       H  0.73192333  0.67736348  0.60074564     0.17000
H1632       H  0.80603314  0.62121188  0.85111518     0.17100
H1633       H  0.73352416  0.69527426  0.86969632     0.17000
C1634       C  0.81072939  0.69915155  0.80556321     0.30900
C1635       C  0.81270646  0.69641095  0.64954099     0.30900
C1636       C  0.84227769  0.68697386  0.76102436    -0.05300
C1637       C  0.77877297  0.67283427  0.76576217    -0.06100
C1638       C  0.81366484  0.73466041  0.76882025    -0.05900
C1639       C  0.84312355  0.68469962  0.68610198    -0.05300
C1640       C  0.78005197  0.67082875  0.69159570    -0.06100
C1641       C  0.81302600  0.73279620  0.69533837    -0.06000
C1642       C  0.86173112  0.65808813  0.66664448    -0.31300
N1643       N  0.87483236  0.64814427  0.72095568     0.15200
C1644       C  0.86299905  0.66505920  0.77785169    -0.31300
H1645       H  0.86762894  0.66026332  0.82850853     0.17100
C1646       C  0.75481104  0.63847752  0.67413389    -0.30300
N1647       N  0.73573983  0.62394350  0.73062278     0.13900
C1648       C  0.75078200  0.64367172  0.78584452    -0.30300
C1649       C  0.81717353  0.76813493  0.67987235    -0.30600
N1650       N  0.82588769  0.79140164  0.73505106     0.14400
H1651       H  0.81364689  0.77728069  0.63259219     0.17000
C1652       C  0.82272795  0.77167908  0.78978612    -0.30600
H1653       H  0.82912598  0.78350954  0.84047463     0.17000
H1654       H  0.74222880  0.63660906  0.83723709     0.17000
H1655       H  0.86246317  0.64367921  0.61720319     0.17100
H1656       H  0.75143406  0.62589130  0.62345394     0.17000
N1657       N  0.57690504  0.58066512  0.93433768    -0.05200
N1658       N  0.60176212  0.61228093  0.94731455    -0.57300
N1659       N  0.57122319  0.58962098  0.80904474    -0.04900
N1660       N  0.60038472  0.61711089  0.79504959    -0.59500
N1661       N  0.54492900  0.60360645  0.83776504    -0.04500
N1662       N  0.55619141  0.63982898  0.84321784    -0.57300
N1663       N  0.59426580  0.55740328  0.90312251    -0.04200
N1664       N  0.63004009  0.57160704  0.90258395    -0.59800
C1665       C  0.63469274  0.60576649  0.93191364     0.97000
C1666       C  0.59067143  0.64809766  0.81568529     0.95500
N1667       N  0.01519294  0.95592347  0.68224615    -0.05400
N1668       N  0.99602295  0.95471610  0.73887669    -0.57900
N1669       N  0.57026845  0.90976852  0.77345657    -0.03500
N1670       N  0.58714837  0.88657379  0.79248359    -0.59200
N1671       N  0.53779556  0.89039940  0.75511646    -0.05400
N1672       N  0.53461490  0.85545999  0.75302529    -0.58200
N1673       N  0.57500223  0.46724914  0.77891065    -0.03200
N1674       N  0.59890534  0.46269376  0.72939802    -0.59300
Mn1675     Mn  0.57125832  0.52699648  0.81274381     1.18400
C1676       C  0.06275053  0.44190876  0.70904161     0.99000
C1677       C  0.56304273  0.85275575  0.78336727     0.99700
N1678       N  0.94026539  0.57590246  0.88648429    -0.05500
N1679       N  0.92640033  0.60406945  0.89719212    -0.61800
N1680       N  0.02721387  0.96916417  0.89368594    -0.04300
N1681       N  0.91482023  0.05393610  0.50818978    -0.62400
N1682       N  0.48287517  0.55712560  0.02260559    -0.05000
N1683       N  0.46063037  0.59255649  0.55049511    -0.62000
N1684       N  0.91406994  0.54496327  0.88303981    -0.03900
N1685       N  0.88208137  0.55141082  0.89022717    -0.62700
Mn1686     Mn  0.51523135  0.57631868  0.92233660     1.10700
C1687       C  0.89035629  0.58805532  0.89920647     1.00300
C1688       C  0.92931996  0.08428565  0.54716623     1.00300
N1689       N  0.98427881  0.89540121  0.87152387    -0.05000
N1690       N  0.97984835  0.85974944  0.86415440    -0.60300
N1691       N  0.93307005  0.95202522  0.87853434    -0.04300
N1692       N  0.89802675  0.94519732  0.89716480    -0.57100
N1693       N  0.93910573  0.92887279  0.82852423    -0.05600
N1694       N  0.90898280  0.90169218  0.82310384    -0.59900
N1695       N  0.97504832  0.90611011  0.93408600    -0.04600
N1696       N  0.96412069  0.87674476  0.96982972    -0.57100
Mn1697     Mn  0.99727520  0.93222885  0.78774568     1.20200
Mn1698     Mn  0.97107184  0.96609789  0.95704157     1.10100
Cl1699     Cl  0.99191924  0.50780049  0.88554269    -0.85100
C1700       C  0.96653871  0.84791461  0.92535501     0.97300
C1701       C  0.88293814  0.91423023  0.86090620     0.97100
N1702       N  0.59360300  0.56053215  0.69954578    -0.05200
N1703       N  0.62389441  0.56293817  0.72872513    -0.57300
N1704       N  0.55337352  0.60321103  0.61196999    -0.04900
N1705       N  0.55832245  0.63476086  0.58525536    -0.59500
N1706       N  0.54669978  0.60723588  0.67726441    -0.04500
N1707       N  0.54686485  0.64108957  0.69727112    -0.57300
N1708       N  0.59878288  0.55551591  0.63416018    -0.04200
N1709       N  0.63240792  0.55440867  0.61665921    -0.59800
C1710       C  0.64810777  0.56023343  0.67588064     0.97000
C1711       C  0.55498177  0.65816141  0.63972384     0.96700
N1712       N  0.95003083  0.02217511  0.61048883    -0.05400
N1713       N  0.05302358  0.92588375  0.99421459    -0.57900
N1714       N  0.53509730  0.99034120  0.56835828    -0.03500
N1715       N  0.56715243  0.98381132  0.57266346    -0.59200
N1716       N  0.50871602  0.95977968  0.56968151    -0.05400
N1717       N  0.52341711  0.93170317  0.57450411    -0.58200
N1718       N  0.49195590  0.54203550  0.62530692    -0.03200
N1719       N  0.55104065  0.51249844  0.98769166    -0.59300
Mn1720     Mn  0.54840413  0.54201079  0.57210596     1.18400
C1721       C  0.93264832  0.54397907  0.12134772     0.99000
C1722       C  0.56047124  0.94721267  0.57657567     0.99700
N1723       N  0.96281559  0.55382883  0.75802117    -0.05500
N1724       N  0.95100062  0.58336296  0.75560842    -0.61800
N1725       N  0.94938851  0.02335817  0.83209164    -0.04300
N1726       N  0.94865408  0.00036994  0.77999318    -0.62400
N1727       N  0.53400925  0.49997218  0.68895775    -0.05000
N1728       N  0.56368303  0.49101365  0.66336646    -0.62000
N1729       N  0.93513622  0.52406962  0.75567915    -0.03900
N1730       N  0.90428839  0.53316176  0.75245496    -0.62700
Mn1731     Mn  0.53195478  0.55698722  0.73843298     1.10700
C1732       C  0.91443837  0.57016152  0.75321976     1.00300
C1733       C  0.98423018  0.01248748  0.76617152     1.00300
N1734       N  0.93686365  0.92396505  0.65400756    -0.05000
N1735       N  0.92276513  0.88879360  0.63739019    -0.60300
N1736       N  0.88210386  0.97421315  0.65438196    -0.04300
N1737       N  0.84653978  0.96134197  0.66711697    -0.57100
N1738       N  0.89206162  0.96088497  0.59437389    -0.05600
N1739       N  0.86313352  0.94045167  0.56538443    -0.59900
N1740       N  0.91740185  0.93579077  0.70483833    -0.04600
N1741       N  0.88701528  0.90941036  0.71589463    -0.57100
Mn1742     Mn  0.95402749  0.96248574  0.57021965     1.20200
Mn1743     Mn  0.92271604  0.99662868  0.73273107     1.10100
Cl1744     Cl  0.98743489  0.50017953  0.63294991    -0.85100
C1745       C  0.89225989  0.87977047  0.67791941     0.97300
C1746       C  0.83515967  0.94005534  0.61056476     0.97100
C1747       C  0.69340497  0.82737108  0.76443174     0.30900
C1748       C  0.69807958  0.82185593  0.91906080     0.30900
C1749       C  0.66379975  0.83500902  0.81853195    -0.05300
C1750       C  0.69459270  0.79010977  0.79290787    -0.06100
C1751       C  0.72703161  0.85304791  0.80503989    -0.05900
C1752       C  0.66606104  0.83291814  0.89170777    -0.05300
C1753       C  0.69614859  0.78719730  0.86618224    -0.06100
C1754       C  0.72888401  0.84969436  0.87789177    -0.06000
C1755       C  0.63176169  0.82939460  0.92058011    -0.31300
N1756       N  0.60980022  0.82941031  0.87155322     0.15200
C1757       C  0.62841864  0.83113493  0.81025212    -0.31300
H1758       H  0.61639473  0.82456748  0.76200842     0.17100
C1759       C  0.68321745  0.75005058  0.87484708    -0.30300
N1760       N  0.67467457  0.73093256  0.81455707     0.13900
C1761       C  0.68280918  0.75453696  0.76509970    -0.30300
C1762       C  0.76120859  0.87332453  0.89674127    -0.30600
N1763       N  0.78015384  0.88954963  0.84210207     0.14400
H1764       H  0.77062864  0.87866012  0.94723974     0.17000
C1765       C  0.75901896  0.87973846  0.78820778    -0.30600
H1766       H  0.76720558  0.89039015  0.73938209     0.17000
H1767       H  0.67756483  0.74629901  0.71292570     0.17000
H1768       H  0.62251835  0.82325529  0.97226846     0.17100
H1769       H  0.67824952  0.73783271  0.92260620     0.17000
C1770       C  0.69918570  0.81962877  0.01229811     0.30900
C1771       C  0.68678045  0.82813501  0.67126405     0.30900
C1772       C  0.69347236  0.85223740  0.06444334    -0.05300
C1773       C  0.67102501  0.78877421  0.05153316    -0.06100
C1774       C  0.73413205  0.81512660  0.04335575    -0.05900
C1775       C  0.67276260  0.85819815  0.63393016    -0.05300
C1776       C  0.66217568  0.79419110  0.62957829    -0.06100
C1777       C  0.72197675  0.82910012  0.62525754    -0.06000
C1778       C  0.64486248  0.87590929  0.65407697    -0.31300
N1779       N  0.63077714  0.88692242  0.60079011     0.15200
C1780       C  0.67445075  0.87771800  0.05918172    -0.31300
H1781       H  0.66531553  0.88388281  0.01288226     0.17100
C1782       C  0.63239681  0.76643383  0.64831489    -0.30300
N1783       N  0.61686571  0.74782002  0.59185308     0.13900
C1784       C  0.64199914  0.76072070  0.03151838    -0.30300
C1785       C  0.75688267  0.83419652  0.64152431    -0.30600
N1786       N  0.77957410  0.84203074  0.58598290     0.14400
H1787       H  0.76613568  0.83542223  0.69123583     0.17000
C1788       C  0.76946385  0.82189266  0.01568364    -0.30600
H1789       H  0.77806010  0.82472527  0.96284036     0.17000
H1790       H  0.63248513  0.75417935  0.98097996     0.17000
H1791       H  0.63412288  0.87848941  0.70565499     0.17100
H1792       H  0.62281703  0.76055369  0.69995914     0.17000
C1793       C  0.59024158  0.71309408  0.58745298    -0.15500
C1794       C  0.57385418  0.69687943  0.64266374    -0.30700
H1795       H  0.58597692  0.69838696  0.53791507     0.13500
H1796       H  0.57730251  0.71102387  0.69262153     0.14100
C1797       C  0.80499287  0.90674031  0.61252217    -0.15500
C1798       C  0.81004716  0.87367937  0.58945004    -0.30700
H1799       H  0.77823071  0.90921213  0.63117118     0.13500
H1800       H  0.83666674  0.87096897  0.57151944     0.14100
C1801       C  0.59647382  0.89919322  0.60424094    -0.15500
C1802       C  0.59275420  0.92918082  0.57399871    -0.30700
H1803       H  0.57325362  0.88453218  0.63514728     0.13500
H1804       H  0.61754905  0.94497628  0.54846246     0.14100
C1805       C  0.61652261  0.68508598  0.82668270    -0.15500
C1806       C  0.65219503  0.69367440  0.80552712    -0.30700
H1807       H  0.60563653  0.70647542  0.85309795     0.13500
H1808       H  0.66343769  0.67336582  0.77598180     0.14100
C1809       C  0.81838599  0.90946824  0.83970896    -0.15500
C1810       C  0.84327064  0.89594215  0.86530497    -0.30700
H1811       H  0.82753284  0.93393859  0.81216900     0.13500
H1812       H  0.83439316  0.86944876  0.88660247     0.14100
C1813       C  0.55098965  0.82737286  0.83814798    -0.15500
C1814       C  0.57150016  0.81984391  0.88169535    -0.30700
H1815       H  0.52207315  0.81475695  0.84608467     0.13500
H1816       H  0.55839791  0.80366673  0.92374933     0.14100
C1817       C  0.89891516  0.62475183  0.71861494    -0.15500
C1818       C  0.88884446  0.59254281  0.74709475    -0.30700
H1819       H  0.92609773  0.63386820  0.69363345     0.13500
H1820       H  0.86090617  0.58231802  0.76706438     0.14100
C1821       C  0.84325359  0.82990522  0.73116715    -0.15500
C1822       C  0.87068983  0.84146000  0.68413574    -0.30700
H1823       H  0.83462637  0.84927040  0.76763512     0.13500
H1824       H  0.87957042  0.82109818  0.64968848     0.14100
C1825       C  0.68681249  0.57859303  0.67721115    -0.15500
C1826       C  0.70169265  0.59611728  0.73353959    -0.30700
H1827       H  0.70196556  0.58157344  0.62832068     0.13500
H1828       H  0.68592482  0.59254815  0.78205099     0.14100
C1829       C  0.86443707  0.60613098  0.93019357    -0.15500
C1830       C  0.82971140  0.58736379  0.94244824    -0.30700
H1831       H  0.87295089  0.63579815  0.93887964     0.13500
H1832       H  0.94468040  0.67144545  0.42095041     0.14100
C1833       C  0.91919198  0.79824372  0.98235237    -0.15500
C1834       C  0.94224806  0.81012096  0.92904266    -0.30700
H1835       H  0.92099521  0.81527930  0.02975219     0.13500
H1836       H  0.94102219  0.79224615  0.88281961     0.14100
C1837       C  0.67171614  0.63154613  0.94462175    -0.15500
C1838       C  0.67912902  0.66763035  0.96662189    -0.30700
H1839       H  0.69469232  0.61979608  0.93468750     0.13500
H1840       H  0.65729423  0.68074666  0.97332614     0.14100
loop_ 
_geom_bond_atom_site_label_1 
_geom_bond_atom_site_label_2 
_geom_bond_distance 
_geom_bond_site_symmetry_2 
_ccdc_geom_bond_type 
C1            C3   1.644   1_554  S
C1            C5   1.593   1_554  S
C1            C4   1.580   1_554  S
C1           C25   1.877       .  S
C2            C6   1.582       .  S
C2            C8   1.602       .  S
C2            C7   1.591       .  S
C2           C24   1.880       .  S
C3           C11   1.421       .  A
C3          C236   1.471       .  A
C4           C15   1.383       .  A
C4          C237   1.447       .  A
C5           C19   1.384       .  A
C5          C238   1.471       .  A
C6            C9   1.372       .  A
C6          C233   1.469       .  A
C7           C13   1.374       .  A
C7          C234   1.469       .  A
C8           C16   1.391       .  A
C8          C235   1.478       .  A
C9           N10   1.346       .  A
C9           H22   1.075       .  S
N10         C241   1.353       .  A
N10         C220   1.436       .  S
C11         N240   1.369       .  A
C11          H12   1.079   1_556  S
C13         N244   1.349       .  A
C13          H23   1.078       .  S
N14          C15   1.355       .  A
N14         C243   1.346       .  A
N14         C458   1.442       .  S
C15          H21   1.066   1_556  S
C16         N247   1.356       .  A
C16          H18   1.070       .  S
N17          C19   1.356       .  A
N17         C246   1.346       .  A
N17         C453   1.427       .  S
C19          H20   1.077   1_556  S
C24          C26   1.568       .  S
C24          C28   1.588       .  S
C24          C27   1.594       .  S
C25          C29   1.557       .  S
C25          C31   1.596       .  S
C25          C30   1.601       .  S
C26          C34   1.368       .  A
C26          C29   1.461       .  A
C27          C38   1.381       .  A
C27          C30   1.472       .  A
C28          C42   1.375       .  A
C28          C31   1.478       .  A
C29          C32   1.348       .  A
C30          C36   1.386       .  A
C31          C39   1.381       .  A
C32          N33   1.343       .  A
C32          H45   1.077       .  S
N33          C34   1.345       .  A
N33         C207   1.409       .  S
C34          H35   1.076       .  S
C36          N37   1.354       .  A
C36          H46   1.083       .  S
N37          C38   1.356       .  A
N37         C216   1.442       .  S
C38          H44   1.070       .  S
C39          N40   1.354       .  A
C39          H41   1.081       .  S
N40          C42   1.352       .  A
N40         C211   1.432       .  S
C42          H43   1.076       .  S
N47          N48   1.321       .  A
N47          N53   1.324       .  A
N47         Mn76   2.366       .  S
N48          C55   1.336       .  A
N49          N51   1.321       .  A
N49          N50   1.331       .  A
N49         Mn65   2.318       .  S
N50          C56   1.359       .  A
N51          N52   1.325       .  A
N51         Mn76   2.236       .  S
N52          C56   1.344       .  A
N53          N54   1.312       .  A
N53         Mn65   2.135       .  S
N54          C55   1.344       .  A
C55         C227   1.447       .  S
C56         C195   1.499       .  S
N57          N58   1.290       .  A
N57        N1443   1.333       .  A
N57         Mn87   2.128       .  S
N58         C526   1.309       .  A
N59          N60   1.318       .  A
N59          N61   1.327       .  A
N59        Mn525   2.356       .  S
N60          C67   1.349       .  A
N61          N62   1.311       .  A
N61       Mn1007   2.301   1_455  S
N62          C67   1.342       .  A
N63          N64   1.303   1_565  A
N63        N1437   1.336       .  A
N63         Mn65   2.116   1_565  S
N64         C986   1.321   1_545  A
Mn65        N519   2.180   1_545  S
Mn65      Cl1009   2.580       .  S
C66         N518   1.326       .  A
C66         N984   1.325       .  A
C66         C583   1.427   1_565  S
C67         C203   1.434       .  S
N68          N69   1.318       .  A
N68          N74   1.329       .  A
N68        Mn996   2.205       .  S
N69          C77   1.348       .  A
N70        N1452   1.326       .  A
N70         N301   1.320       .  A
N70         Mn88   2.094       .  S
N71          C78   1.329       .  A
N71         N300   1.286   1_556  A
N72        N1450   1.317       .  A
N72         N303   1.321       .  A
N72         Mn76   2.236   1_655  S
N73        C1458   1.352       .  A
N73         N302   1.340       .  A
N74          N75   1.323       .  A
N74        Mn548   2.252   1_545  S
N75          C77   1.353       .  A
Mn76        N988   2.316   1_455  S
Mn76      Cl1009   2.501       .  S
C77         C219   1.470       .  S
C78        N1453   1.325       .  A
C78         C801   1.382       .  S
N79          N80   1.322       .  A
N79          N85   1.328       .  A
N79         Mn87   2.112       .  S
N80          C90   1.341       .  A
N81          N82   1.319       .  A
N81          N83   1.309       .  A
N81         Mn88   2.074       .  S
N82          C91   1.334       .  A
N83          N84   1.337       .  A
N83         Mn87   2.320       .  S
N84          C91   1.369       .  A
N85          N86   1.337       .  A
N85         Mn88   2.365       .  S
N86          C90   1.351       .  A
Mn87        N981   2.132       .  S
Mn87       Cl549   2.596       .  S
Mn88        N534   2.194       .  S
Mn88       Cl549   2.554       .  S
Cl89       Mn985   2.518   1_565  S
Cl89       Mn996   2.543   1_565  S
Cl89       Mn547   2.553       .  S
Cl89       Mn548   2.500       .  S
C90         C224   1.492       .  S
C91         C200   1.498       .  S
N92          N93   1.335       .  A
N92          N98   1.315       .  A
N92        Mn121   2.288       .  S
N93         C100   1.361       .  A
N94          N96   1.327       .  A
N94          N95   1.315       .  A
N94        Mn110   2.304       .  S
N95         C101   1.343       .  A
N96          N97   1.320       .  A
N96        Mn121   2.086       .  S
N97         C101   1.340       .  A
N98          N99   1.315       .  A
N98        Mn110   2.096       .  S
N99         C100   1.336       .  A
C100        C215   1.493       .  S
C101        C184   1.464       .  S
N102       N1488   1.325       .  A
N102        N333   1.288   1_554  A
N102       Mn132   2.104       .  S
N103        C571   1.353       .  A
N103        N332   1.326       .  A
N104        N105   1.331       .  A
N104        N106   1.329       .  A
N104       Mn570   2.296       .  S
N105        C112   1.357       .  A
N106        N107   1.336       .  A
N106      Mn1052   2.335   1_455  S
N107        C112   1.355       .  A
N108       N1482   1.324       .  A
N108        N339   1.320       .  A
N108       Mn110   2.073   1_565  S
N109       C1031   1.338       .  A
N109        N338   1.329       .  A
Mn110       N564   2.212   1_545  S
Mn110     Cl1054   2.520   1_455  S
C111        N563   1.344       .  A
C111       N1029   1.334       .  A
C111        C768   1.463       .  S
C112        C192   1.498       .  S
N113        N114   1.311       .  A
N113        N119   1.314       .  A
N113      Mn1041   2.148       .  S
N114        C122   1.346       .  A
N115        N116   1.293       .  A
N115       N1497   1.333       .  A
N115       Mn133   2.152       .  S
N116        C123   1.322       .  A
N117        N118   1.309   1_655  A
N117       N1495   1.331       .  A
N117       Mn121   2.078   1_655  S
N118       C1503   1.321   1_455  A
N119        N120   1.316       .  A
N119       Mn593   2.116   1_545  S
N120        C122   1.338       .  A
Mn121      N1033   2.180   1_455  S
Mn121     Cl1054   2.608   1_455  S
C122        C208   1.442       .  S
C123       N1498   1.321       .  A
C123        C526   1.407       .  S
N124        N125   1.316       .  A
N124        N130   1.328       .  A
N124       Mn132   2.125       .  S
N125        C135   1.337       .  A
N126        N127   1.322       .  A
N126        N128   1.331       .  A
N126       Mn133   2.148       .  S
N127        C136   1.342       .  A
N128        N129   1.324       .  A
N128       Mn132   2.284       .  S
N129        C136   1.349       .  A
N130        N131   1.331       .  A
N130       Mn133   2.306       .  S
N131        C135   1.359       .  A
Mn132      N1026   2.220       .  S
Mn132      Cl594   2.563       .  S
Mn133       N579   2.209       .  S
Mn133      Cl594   2.588       .  S
Cl134     Mn1030   2.560   1_565  S
Cl134     Mn1041   2.560   1_565  S
Cl134      Mn592   2.567       .  S
Cl134      Mn593   2.556       .  S
C135        C212   1.481       .  S
C136        C187   1.474       .  S
C137        C139   1.573       .  S
C137        C141   1.592       .  S
C137        C140   1.621       .  S
C137        C161   1.884       .  S
C138        C142   1.565       .  S
C138        C144   1.572       .  S
C138        C143   1.601       .  S
C138        C160   1.863       .  S
C139        C147   1.370       .  A
C139        C142   1.463       .  A
C140        C151   1.396       .  A
C140        C143   1.495       .  A
C141        C155   1.392       .  A
C141        C144   1.463       .  A
C142        C145   1.362       .  A
C143        C149   1.397       .  A
C144        C152   1.374       .  A
C145        N146   1.351       .  A
C145        H158   1.078       .  S
N146        C147   1.355       .  A
N146        C204   1.416       .  S
C147        H148   1.075       .  S
C149        N150   1.351       .  A
C149        H159   1.064       .  S
N150        C151   1.355       .  A
N150        C196   1.456       .  S
C151        H157   1.072       .  S
C152        N153   1.345       .  A
C152        H154   1.070       .  S
N153        C155   1.355       .  A
N153        C199   1.448       .  S
C155        H156   1.070       .  S
C160        C162   1.591       .  S
C160        C164   1.592       .  S
C160        C163   1.551       .  S
C161        C165   1.626       .  S
C161        C167   1.598       .  S
C161        C166   1.568       .  S
C162        C170   1.381       .  A
C162        C395   1.475       .  A
C163        C174   1.367       .  A
C163        C396   1.476       .  A
C164        C178   1.377       .  A
C164        C397   1.465       .  A
C165        C168   1.407       .  A
C165        C392   1.472       .  A
C166        C172   1.371       .  A
C166        C393   1.473       .  A
C167        C175   1.384       .  A
C167        C394   1.464       .  A
C168        N169   1.373       .  A
C168        H181   1.079       .  S
N169        C400   1.348       .  A
N169        C191   1.453       .  S
C170        N399   1.358       .  A
C170        H171   1.080       .  S
C172        N173   1.346       .  A
C172        H182   1.085       .  S
N173        C404   1.357   1_554  A
N173        C183   1.434       .  S
C174        N403   1.335       .  A
C174        H180   1.086       .  S
C175        N176   1.358       .  A
C175        H177   1.077       .  S
N176        C408   1.346       .  A
N176        C188   1.432       .  S
C178        N406   1.353       .  A
C178        H179   1.077       .  S
C183        C184   1.335       .  D
C183        H185   1.090       .  S
C184        H186   1.081   1_554  S
C187        C188   1.337       .  D
C187        H189   1.086       .  S
C188        H190   1.087       .  S
C191        C192   1.359       .  D
C191        H193   1.085       .  S
C192        H194   1.085   1_554  S
C195        C196   1.353       .  D
C195        H197   1.082       .  S
C196        H198   1.089       .  S
C199        C200   1.364       .  D
C199        H201   1.086       .  S
C200        H202   1.086       .  S
C203        C204   1.340       .  D
C203        H205   1.088       .  S
C204        H206   1.088       .  S
C207        C208   1.335       .  D
C207        H209   1.085       .  S
C208        H210   1.086       .  S
C211        C212   1.347       .  D
C211        H213   1.083       .  S
C212        H214   1.084       .  S
C215        C216   1.356       .  D
C215        H217   1.089       .  S
C216        H218   1.082       .  S
C219        C220   1.349       .  D
C219        H221   1.078       .  S
C220        H452   1.085       .  S
H222        C450   1.083       .  S
C223        N247   1.452       .  S
C223        C224   1.354       .  D
C223        H225   1.079       .  S
C224        H226   1.084       .  S
C227        C228   1.337       .  D
C227        H229   1.084       .  S
C228        N244   1.422       .  S
C228        H230   1.087       .  S
C231        C233   1.591       .  S
C231        C235   1.600       .  S
C231        C234   1.562       .  S
C231        C255   1.884       .  S
C232        C236   1.643       .  S
C232        C238   1.573       .  S
C232        C237   1.545       .  S
C232        C254   1.865       .  S
C233        C241   1.388       .  A
C234        C245   1.361       .  A
C235        C249   1.384       .  A
C236        C239   1.436       .  A
C237        C243   1.361       .  A
C238        C246   1.372       .  A
C239        N240   1.394       .  A
C239        H252   0.998       .  S
N240        C450   1.523       .  S
C241        H242   1.080       .  S
C243        H253   1.078       .  S
N244        C245   1.346       .  A
C245        H251   1.080       .  S
C246        H248   1.081       .  S
N247        C249   1.350       .  A
C249        H250   1.073       .  S
C254        C256   1.552       .  S
C254        C258   1.603       .  S
C254        C257   1.588       .  S
C255        C259   1.562       .  S
C255        C261   1.587       .  S
C255        C260   1.605       .  S
C256        C264   1.365       .  A
C256        C259   1.472       .  A
C257        C268   1.391       .  A
C257        C260   1.461       .  A
C258        C272   1.387       .  A
C258        C261   1.498       .  A
C259        C262   1.371       .  A
C260        C266   1.399       .  A
C261        C269   1.386       .  A
C262        N263   1.342       .  A
C262        H275   1.078       .  S
N263        C264   1.357       .  A
N263        C437   1.422       .  S
C264        H265   1.084       .  S
C266        N267   1.357       .  A
C266        H276   1.070       .  S
N267        C268   1.361       .  A
N267        C446   1.466       .  S
C268        H274   1.080       .  S
C269        N270   1.345       .  A
C269        H271   1.075       .  S
N270        C272   1.345       .  A
N270        C441   1.444       .  S
C272        H273   1.076       .  S
N277        N278   1.315       .  A
N277        N283   1.311       .  A
N277       Mn306   2.311       .  S
N278        C285   1.328       .  A
N279        N281   1.309       .  A
N279        N280   1.332       .  A
N279       Mn295   2.473       .  S
N280        C286   1.342       .  A
N281        N282   1.335       .  A
N281       Mn306   2.252       .  S
N282        C286   1.348       .  A
N283        N284   1.319       .  A
N283       Mn295   2.262       .  S
N284        C285   1.352       .  A
C285        C457   1.461       .  S
C286        C425   1.497       .  S
N287       N1673   1.348       .  A
N287        N288   1.318       .  A
N287       Mn317   2.348       .  S
N288        C756   1.337       .  A
N289        N290   1.312       .  A
N289        N291   1.332       .  A
N289       Mn755   2.187       .  S
N290        C297   1.341       .  A
N291        N292   1.326       .  A
N291      Mn1237   2.341   1_455  S
N292        C297   1.349       .  A
N293       N1667   1.332       .  A
N293        N294   1.275   1_565  A
N293       Mn295   2.421   1_565  S
N294       C1216   1.329   1_545  A
Mn295       N749   2.345   1_545  S
Mn295     Cl1239   2.733   1_545  S
C296        N748   1.332       .  A
C296       N1214   1.316   1_565  A
C296        C813   1.441   1_565  S
C297        C433   1.450       .  S
N298        N299   1.343       .  A
N298        N304   1.317       .  A
N298      Mn1226   2.430       .  S
N299        C307   1.371       .  A
N300       N1682   1.328       .  A
N300       Mn318   2.413   1_554  S
N301        C308   1.346       .  A
N302       N1680   1.308       .  A
N302       Mn306   2.319   1_565  S
N303       C1688   1.360       .  A
N304        N305   1.356       .  A
N304       Mn778   2.382   1_545  S
N305        C307   1.382       .  A
Mn306      N1218   2.342   1_455  S
Mn306     Cl1239   2.537   1_545  S
C307        C449   1.602       .  S
C308       N1683   1.348       .  A
C308        C571   1.476       .  S
N309        N310   1.314       .  A
N309        N315   1.306       .  A
N309       Mn317   2.185       .  S
N310        C320   1.337       .  A
N311        N312   1.324       .  A
N311        N313   1.312       .  A
N311       Mn318   2.241       .  S
N312        C321   1.349       .  A
N313        N314   1.334       .  A
N313       Mn317   2.599       .  S
N314        C321   1.352       .  A
N315        N316   1.319       .  A
N315       Mn318   2.448       .  S
N316        C320   1.345       .  A
Mn317      N1211   2.360       .  S
Mn317      Cl779   2.620       .  S
Mn318       N764   2.329       .  S
Mn318      Cl779   2.717       .  S
Cl319     Mn1215   2.785       .  S
Cl319     Mn1226   2.589   1_565  S
Cl319      Mn777   2.547       .  S
Cl319      Mn778   2.470       .  S
C320        C454   1.460       .  S
C321        C430   1.491       .  S
N322        N323   1.343       .  A
N322        N328   1.303       .  A
N322       Mn351   2.497       .  S
N323        C330   1.358       .  A
N324        N326   1.312       .  A
N324        N325   1.317       .  A
N324       Mn340   2.332       .  S
N325        C331   1.349       .  A
N326        N327   1.315       .  A
N326       Mn351   2.228       .  S
N327        C331   1.347       .  A
N328        N329   1.328       .  A
N328       Mn340   2.264       .  S
N329        C330   1.343       .  A
C330        C445   1.515       .  S
C331        C414   1.452       .  S
N332       N1718   1.301       .  A
N332       Mn362   2.343       .  S
N333        C801   1.322       .  A
N334        N335   1.331       .  A
N334        N336   1.328       .  A
N334       Mn800   2.338       .  S
N335        C342   1.351       .  A
N336        N337   1.340       .  A
N336      Mn1282   2.331   1_455  S
N337        C342   1.365       .  A
N338       N1712   1.297       .  A
N338       Mn340   2.346   1_655  S
N339       C1261   1.339   1_554  A
Mn340       N794   2.356   1_545  S
Mn340     Cl1284   2.520   1_455  S
C341        N793   1.336   1_556  A
C341       N1259   1.356   1_556  A
C341        C538   1.473       .  S
C342        C422   1.505       .  S
N343        N344   1.300       .  A
N343        N349   1.331       .  A
N343      Mn1271   2.191       .  S
N344        C352   1.332       .  A
N345       N1727   1.298       .  A
N345        N346   1.324       .  A
N345       Mn363   2.325       .  S
N346        C353   1.360       .  A
N347       N1725   1.331       .  A
N347        N348   1.274       .  A
N347       Mn351   2.402   1_655  S
N348       C1733   1.324       .  A
N349        N350   1.323       .  A
N349       Mn823   2.277       .  S
N350        C352   1.359       .  A
Mn351      N1263   2.348   1_455  S
Mn351     Cl1284   2.706   1_455  S
C352        C438   1.463       .  S
C353       N1728   1.339       .  A
C353        C756   1.492       .  S
N354        N355   1.316       .  A
N354        N360   1.303       .  A
N354       Mn362   2.283       .  S
N355        C365   1.347       .  A
N356        N357   1.318       .  A
N356        N358   1.305       .  A
N356       Mn363   2.299       .  S
N357        C366   1.346       .  A
N358        N359   1.314       .  A
N358       Mn362   2.361       .  S
N359        C366   1.342       .  A
N360        N361   1.319       .  A
N360       Mn363   2.389       .  S
N361        C365   1.347       .  A
Mn362      N1256   2.443       .  S
Mn362      Cl824   2.564       .  S
Mn363       N809   2.475       .  S
Mn363      Cl824   2.570       .  S
Cl364     Mn1271   2.665       .  S
Cl364      Mn823   2.615       .  S
Cl364     Mn1260   2.503       .  S
Cl364      Mn822   2.535   1_545  S
C365        C442   1.464       .  S
C366        C417   1.457       .  S
C367        C369   1.575       .  S
C367        C371   1.612       .  S
C367        C370   1.611       .  S
C367        C391   1.879       .  S
C368        C372   1.570       .  S
C368        C374   1.591       .  S
C368        C373   1.565       .  S
C368        C390   1.854       .  S
C369        C377   1.369       .  A
C369        C372   1.467       .  A
C370        C381   1.404       .  A
C370        C373   1.461       .  A
C371        C385   1.398       .  A
C371        C374   1.488       .  A
C372        C375   1.366       .  A
C373        C379   1.373       .  A
C374        C382   1.391       .  A
C375        N376   1.350       .  A
C375        H388   1.079       .  S
N376        C377   1.353       .  A
N376        C434   1.420       .  S
C377        H378   1.076       .  S
C379        N380   1.344       .  A
C379        H389   1.077       .  S
N380        C381   1.367       .  A
N380        C426   1.455       .  S
C381        H387   1.071       .  S
C382        N383   1.350       .  A
C382        H384   1.069       .  S
N383        C385   1.351       .  A
N383        C429   1.455       .  S
C385        H386   1.074       .  S
C390        C392   1.570   1_556  S
C390        C394   1.562   1_556  S
C390        C393   1.595   1_556  S
C391        C395   1.620       .  S
C391        C397   1.558       .  S
C391        C396   1.588       .  S
C392        C400   1.370       .  A
C393        C404   1.382   1_554  A
C394        C408   1.368       .  A
C395        C398   1.402       .  A
C396        C402   1.372       .  A
C397        C405   1.366       .  A
C398        N399   1.370       .  A
C398        H411   1.081       .  S
N399        C421   1.461       .  S
C400        H401   1.085   1_554  S
C402        N403   1.351       .  A
C402        H412   1.069       .  S
N403        C413   1.418       .  S
C404        H410   1.076       .  S
C405        N406   1.349       .  A
C405        H407   1.079       .  S
N406        C418   1.432       .  S
C408        H409   1.082   1_554  S
C413        C414   1.335       .  D
C413        H415   1.089       .  S
C414        H416   1.083       .  S
C417        C418   1.345       .  D
C417        H419   1.085       .  S
C418        H420   1.088       .  S
C421        C422   1.358       .  D
C421        H423   1.084       .  S
C422        H424   1.086       .  S
C425        C426   1.347       .  D
C425        H427   1.087       .  S
C426        H428   1.087       .  S
C429        C430   1.354       .  D
C429        H431   1.088       .  S
C430        H432   1.089       .  S
C433        C434   1.342       .  D
C433        H435   1.086       .  S
C434        H436   1.087       .  S
C437        C438   1.360       .  D
C437        H439   1.084       .  S
C438        H440   1.084       .  S
C441        C442   1.351       .  D
C441        H443   1.088       .  S
C442        H444   1.082       .  S
C445        C446   1.365       .  D
C445        H447   1.086       .  S
C446        H448   1.084       .  S
C449        C450   1.412       .  D
C449        H451   1.087       .  S
C453        C454   1.340       .  D
C453        H455   1.087       .  S
C454        H456   1.090       .  S
C457        C458   1.354       .  D
C457        H459   1.080       .  S
C458        H460   1.088       .  S
C461        C463   1.581       .  S
C461        C465   1.559       .  S
C461        C464   1.577       .  S
C461        C485   1.852       .  S
C462        C466   1.569       .  S
C462        C468   1.589       .  S
C462        C467   1.580       .  S
C462        C484   1.869       .  S
C463        C471   1.373       .  A
C463        C696   1.473   1_554  A
C464        C475   1.377       .  A
C464        C697   1.484   1_554  A
C465        C479   1.366       .  A
C465        C698   1.466   1_554  A
C466        C693   1.478       .  A
C466        C469   1.364       .  A
C467        C694   1.484       .  A
C467        C473   1.378       .  A
C468        C695   1.470       .  A
C468        C476   1.387       .  A
C469        N470   1.348       .  A
C469        H482   1.081       .  S
N470        C701   1.354       .  A
N470        C680   1.424       .  S
C471        N700   1.355   1_554  A
C471        H472   1.078       .  S
C473        N704   1.354       .  A
C473        H483   1.077       .  S
N474        C703   1.362       .  A
N474        C475   1.351   1_556  A
N474        C918   1.442       .  S
C475        H481   1.080       .  S
C476        N707   1.360       .  A
C476        H478   1.080       .  S
N477        C706   1.359       .  A
N477        C479   1.345   1_556  A
N477        C913   1.423       .  S
C479        H480   1.084       .  S
C484        C486   1.590       .  S
C484        C488   1.603       .  S
C484        C487   1.594       .  S
C485        C489   1.551       .  S
C485        C491   1.568       .  S
C485        C490   1.558       .  S
C486        C494   1.387       .  A
C486        C489   1.466       .  A
C487        C498   1.388       .  A
C487        C490   1.462       .  A
C488        C502   1.394       .  A
C488        C491   1.490       .  A
C489        C492   1.345       .  A
C490        C496   1.363       .  A
C491        C499   1.365       .  A
C492        N493   1.345       .  A
C492        H505   1.087       .  S
N493        C494   1.363       .  A
N493        C667   1.429       .  S
C494        H495   1.076       .  S
C496        N497   1.357       .  A
C496        H506   1.080       .  S
N497        C498   1.366       .  A
N497        C676   1.444       .  S
C498        H504   1.081       .  S
C499        N500   1.346       .  A
C499        H501   1.077       .  S
N500        C502   1.358       .  A
N500        C671   1.442       .  S
C502        H503   1.077       .  S
N507        N508   1.324       .  A
N507        N513   1.316       .  A
N507       Mn536   2.371       .  S
N508        C515   1.351       .  A
N509        N511   1.313       .  A
N509        N510   1.328       .  A
N509       Mn525   2.403       .  S
N510        C516   1.349       .  A
N511        N512   1.316       .  A
N511       Mn536   2.234       .  S
N512        C516   1.342       .  A
N513        N514   1.311       .  A
N513       Mn525   2.235       .  S
N514        C515   1.341       .  A
C515        C687   1.461       .  S
C516        C655   1.467       .  S
N517        N983   1.334       .  A
N517        N518   1.304       .  A
N517       Mn547   2.132       .  S
N519        N520   1.320       .  A
N519        N521   1.317       .  A
N520        C527   1.348       .  A
N521        N522   1.313       .  A
N521      Mn1467   2.119   1_455  S
N522        C527   1.337       .  A
N523        N977   1.324       .  A
N523        N524   1.313       .  A
N523       Mn525   2.258       .  S
N524       C1446   1.350       .  A
Mn525     Cl1469   2.456   1_455  S
C526       N1444   1.313       .  A
C527        C663   1.452       .  S
N528        N529   1.327       .  A
N528        N534   1.328       .  A
N528      Mn1456   2.270       .  S
N529        C537   1.360       .  A
N530        N992   1.323       .  A
N530        N761   1.322       .  A
N530       Mn548   2.056   1_545  S
N531        C538   1.352       .  A
N531        N760   1.352       .  A
N532        N990   1.322       .  A
N532        N763   1.315       .  A
N532       Mn536   2.299   1_655  S
N533        C998   1.354       .  A
N533        N762   1.312   1_554  A
N534        N535   1.310       .  A
N535        C537   1.340       .  A
Mn536      N1448   2.266   1_455  S
Mn536     Cl1469   2.437   1_455  S
C537        C679   1.466       .  S
C538        N993   1.331       .  A
N539        N540   1.320       .  A
N539        N545   1.327       .  A
N539       Mn547   2.097       .  S
N540        C550   1.336       .  A
N541        N542   1.311       .  A
N541        N543   1.307       .  A
N541       Mn548   2.065       .  S
N542        C551   1.330       .  A
N543        N544   1.336       .  A
N543       Mn547   2.295       .  S
N544        C551   1.367       .  A
N545        N546   1.330       .  A
N545       Mn548   2.376       .  S
N546        C550   1.354       .  A
Mn547      N1441   2.131       .  S
Cl549     Mn1445   2.579       .  S
Cl549     Mn1456   2.610       .  S
C550        C684   1.491       .  S
C551        C660   1.486       .  S
N552        N553   1.322       .  A
N552        N558   1.312       .  A
N552       Mn581   2.252       .  S
N553        C560   1.346       .  A
N554        N556   1.310       .  A
N554        N555   1.318       .  A
N554       Mn570   2.235       .  S
N555        C561   1.345       .  A
N556        N557   1.323       .  A
N556       Mn581   2.197       .  S
N557        C561   1.348       .  A
N558        N559   1.320       .  A
N558       Mn570   2.193       .  S
N559        C560   1.347       .  A
C560        C675   1.473       .  S
C561        C644   1.479       .  S
N562       N1028   1.326       .  A
N562        N793   1.319       .  A
N562       Mn592   2.064       .  S
N563        N792   1.332       .  A
N564        N565   1.321       .  A
N564        N566   1.327       .  A
N565        C572   1.349       .  A
N566        N567   1.323       .  A
N566      Mn1512   2.250   1_455  S
N567        C572   1.353       .  A
N568       N1022   1.308       .  A
N568        N799   1.327       .  A
N568       Mn570   2.269   1_655  S
N569       C1491   1.337       .  A
N569        N798   1.325       .  A
Mn570     Cl1514   2.552   1_455  S
C571       N1489   1.352       .  A
C572        C652   1.472       .  S
N573        N574   1.310       .  A
N573        N579   1.316       .  A
N573      Mn1501   2.153       .  S
N574        C582   1.341       .  A
N575       N1037   1.333       .  A
N575        N576   1.300   1_545  A
N575       Mn593   2.157   1_545  S
N576        C583   1.325   1_565  A
N577       N1035   1.303   1_455  A
N577        N578   1.333       .  A
N577       Mn581   2.301       .  S
N578       C1043   1.346       .  A
N579        N580   1.315       .  A
N580        C582   1.351       .  A
Mn581      N1493   2.334   1_455  S
Mn581     Cl1514   2.542   1_455  S
C582        C668   1.438       .  S
C583       N1038   1.323       .  A
N584        N585   1.319       .  A
N584        N590   1.313       .  A
N584       Mn592   2.116       .  S
N585        C595   1.339       .  A
N586        N587   1.320       .  A
N586        N588   1.326       .  A
N586       Mn593   2.135       .  S
N587        C596   1.340       .  A
N588        N589   1.336       .  A
N588       Mn592   2.348       .  S
N589        C596   1.358       .  A
N590        N591   1.333       .  A
N590       Mn593   2.268       .  S
N591        C595   1.361       .  A
Mn592      N1486   2.264       .  S
Cl594     Mn1490   2.575       .  S
Cl594     Mn1501   2.558       .  S
C595        C672   1.488       .  S
C596        C647   1.496       .  S
C597        C599   1.578       .  S
C597        C601   1.571       .  S
C597        C600   1.585       .  S
C597        C621   1.849       .  S
C598        C602   1.557       .  S
C598        C604   1.584       .  S
C598        C603   1.605       .  S
C598        C620   1.862       .  S
C599        C607   1.374       .  A
C599        C602   1.461       .  A
C600        C611   1.378       .  A
C600        C603   1.489       .  A
C601        C615   1.378       .  A
C601        C604   1.463       .  A
C602        C605   1.357       .  A
C603        C609   1.393       .  A
C604        C612   1.381       .  A
C605        N606   1.351       .  A
C605        H618   1.079       .  S
N606        C607   1.359       .  A
N606        C664   1.422       .  S
C607        H608   1.084       .  S
C609        N610   1.363       .  A
C609        H619   1.082       .  S
N610        C611   1.350       .  A
N610        C656   1.444       .  S
C611        H617   1.081       .  S
C612        N613   1.353       .  A
C612        H614   1.074       .  S
N613        C615   1.354       .  A
N613        C659   1.439       .  S
C615        H616   1.081       .  S
C620        C622   1.610       .  S
C620        C624   1.572       .  S
C620        C623   1.567       .  S
C621        C625   1.562       .  S
C621        C627   1.591       .  S
C621        C626   1.566       .  S
C622        C630   1.409       .  A
C622        C855   1.487       .  A
C623        C634   1.365       .  A
C623        C856   1.476       .  A
C624        C638   1.376       .  A
C624        C857   1.461       .  A
C625        C852   1.469       .  A
C625        C628   1.368       .  A
C626        C853   1.462       .  A
C626        C632   1.372       .  A
C627        C854   1.475       .  A
C627        C635   1.377       .  A
C628        N629   1.354       .  A
C628        H641   1.081       .  S
N629        C860   1.362       .  A
N629        C651   1.440       .  S
C630        N859   1.365       .  A
C630        H631   1.070       .  S
C632        N633   1.359       .  A
C632        H642   1.078       .  S
N633        C864   1.363       .  A
N633        C643   1.444       .  S
C634        N863   1.348       .  A
C634        H640   1.085       .  S
C635        N636   1.358       .  A
C635        H637   1.073       .  S
N636        C868   1.359       .  A
N636        C648   1.457       .  S
C638        N866   1.347       .  A
C638        H639   1.082       .  S
C643        C644   1.351       .  D
C643        H645   1.092       .  S
C644        H646   1.082       .  S
C647        C648   1.349       .  D
C647        H649   1.080   1_554  S
C648        H650   1.086       .  S
C651        C652   1.350       .  D
C651        H653   1.086       .  S
C652        H654   1.088       .  S
C655        C656   1.338       .  D
C655        H657   1.089       .  S
C656        H658   1.087       .  S
C659        C660   1.361       .  D
C659        H661   1.087       .  S
C660        H662   1.086       .  S
C663        C664   1.345       .  D
C663        H665   1.087       .  S
C664        H666   1.084       .  S
C667        C668   1.349       .  D
C667        H669   1.082       .  S
C668        H670   1.085       .  S
C671        C672   1.340       .  D
C671        H673   1.081       .  S
C672        H674   1.087       .  S
C675        C676   1.351       .  D
C675        H677   1.083       .  S
C676        H678   1.082       .  S
C679        C680   1.351       .  D
C679        H681   1.085       .  S
C680        H912   1.085       .  S
H682        C910   1.085       .  S
C683        N707   1.441       .  S
C683        C684   1.351       .  D
C683        H685   1.087       .  S
C684        H686   1.087       .  S
C687        C688   1.336       .  D
C687        H689   1.086       .  S
C688        N704   1.436       .  S
C688        H690   1.088       .  S
C691        C693   1.582       .  S
C691        C695   1.582       .  S
C691        C694   1.606       .  S
C691        C715   1.886       .  S
C692        C696   1.584       .  S
C692        C698   1.565       .  S
C692        C697   1.605       .  S
C692        C714   1.875       .  S
C693        C701   1.374       .  A
C694        C705   1.389       .  A
C695        C709   1.376       .  A
C696        C699   1.374       .  A
C697        C703   1.389       .  A
C698        C706   1.366       .  A
C699        N700   1.354       .  A
C699        H712   1.076       .  S
N700        C910   1.431       .  S
C701        H702   1.075       .  S
C703        H713   1.077       .  S
N704        C705   1.356       .  A
C705        H711   1.081       .  S
C706        H708   1.080       .  S
N707        C709   1.352       .  A
C709        H710   1.081       .  S
C714        C716   1.592       .  S
C714        C718   1.617       .  S
C714        C717   1.575       .  S
C715        C719   1.648       .  S
C715        C721   1.586       .  S
C715        C720   1.559       .  S
C716        C724   1.391       .  A
C716        C719   1.479       .  A
C717        C728   1.376       .  A
C717        C720   1.464       .  A
C718        C732   1.409       .  A
C718        C721   1.470       .  A
C719        C722   1.420       .  A
C720        C726   1.363       .  A
C721        C729   1.384       .  A
C722        N723   1.380       .  A
C722        H735   1.077       .  S
N723        C724   1.357       .  A
N723        C897   1.481       .  S
C724        H725   1.082       .  S
C726        N727   1.356       .  A
C726        H736   1.078       .  S
N727        C728   1.354       .  A
N727        C906   1.431       .  S
C728        H734   1.081       .  S
C729        N730   1.350       .  A
C729        H731   1.076       .  S
N730        C732   1.374       .  A
N730        C901   1.463       .  S
C732        H733   1.083       .  S
N737        N738   1.329       .  A
N737        N743   1.316       .  A
N737       Mn766   2.351   1_455  S
N738        C745   1.350       .  A
N739        N741   1.323       .  A
N739        N740   1.328       .  A
N739       Mn755   2.323       .  S
N740        C746   1.351       .  A
N741        N742   1.321       .  A
N741       Mn766   2.208   1_455  S
N742        C746   1.341       .  A
N743        N744   1.313       .  A
N743       Mn755   2.142       .  S
N744        C745   1.339       .  A
C745        C917   1.468       .  S
C746        C885   1.483       .  S
N747       N1213   1.339       .  A
N747        N748   1.289       .  A
N747       Mn777   2.172       .  S
N749        N750   1.327       .  A
N749        N751   1.333       .  A
N750        C757   1.362       .  A
N751        N752   1.305       .  A
N751      Mn1697   2.257   1_455  S
N752        C757   1.342       .  A
N753       N1207   1.330       .  A
N753        N754   1.316       .  A
N753       Mn755   2.143       .  S
N754       C1676   1.350       .  A
Mn755     Cl1699   2.455   1_455  S
C756       N1674   1.351       .  A
C757        C893   1.472       .  S
N758        N759   1.322       .  A
N758        N764   1.326       .  A
N758      Mn1686   2.296       .  S
N759        C767   1.358       .  A
N760       N1222   1.300       .  A
N760       Mn778   2.353       .  S
N761        C768   1.338       .  A
N762       N1220   1.320       .  A
N762       Mn766   2.275       .  S
N763       C1228   1.360       .  A
N764        N765   1.318       .  A
N765        C767   1.346       .  A
Mn766      N1678   2.300       .  S
Mn766     Cl1699   2.490       .  S
C767        C909   1.470       .  S
C768       N1223   1.350       .  A
N769        N770   1.314       .  A
N769        N775   1.325       .  A
N769       Mn777   2.165       .  S
N770        C780   1.343       .  A
N771        N772   1.323       .  A
N771        N773   1.311       .  A
N771       Mn778   2.121       .  S
N772        C781   1.333       .  A
N773        N774   1.330       .  A
N773       Mn777   2.259       .  S
N774        C781   1.362       .  A
N775        N776   1.317       .  A
N775       Mn778   2.311       .  S
N776        C780   1.353       .  A
Mn777      N1671   2.178       .  S
Cl779     Mn1675   2.520       .  S
Cl779     Mn1686   2.762       .  S
C780        C914   1.453       .  S
C781        C890   1.504       .  S
N782        N783   1.316       .  A
N782        N788   1.305       .  A
N782       Mn811   2.324       .  S
N783        C790   1.348       .  A
N784        N786   1.304       .  A
N784        N785   1.315       .  A
N784       Mn800   2.316       .  S
N785        C791   1.353       .  A
N786        N787   1.313       .  A
N786       Mn811   2.297       .  S
N787        C791   1.343       .  A
N788        N789   1.315       .  A
N788       Mn800   2.310       .  S
N789        C790   1.343       .  A
C790        C905   1.449       .  S
C791        C874   1.450       .  S
N792       N1258   1.296       .  A
N792       Mn822   2.370   1_545  S
N794        N795   1.327       .  A
N794        N796   1.316       .  A
N795        C802   1.351       .  A
N796        N797   1.346       .  A
N796      Mn1742   2.461   1_455  S
N797        C802   1.373       .  A
N798       N1252   1.309       .  A
N798       Mn800   2.275   1_655  S
N799       C1721   1.348       .  A
Mn800     Cl1744   2.625   1_455  S
C801       N1719   1.322       .  A
C802        C882   1.533       .  S
N803        N804   1.340       .  A
N803        N809   1.327       .  A
N803      Mn1731   2.446       .  S
N804        C812   1.362       .  A
N805       N1267   1.339       .  A
N805        N806   1.295   1_545  A
N805       Mn823   2.197       .  S
N806        C813   1.332   1_565  A
N807       N1265   1.298   1_455  A
N807        N808   1.319       .  A
N807       Mn811   2.293       .  S
N808       C1273   1.346       .  A
N809        N810   1.336       .  A
N810        C812   1.364       .  A
Mn811      N1723   2.362   1_455  S
Mn811     Cl1744   2.672   1_455  S
C812        C898   1.528       .  S
C813       N1268   1.315       .  A
N814        N815   1.331       .  A
N814        N820   1.321       .  A
N814       Mn822   2.240       .  S
N815        C825   1.342       .  A
N816        N817   1.326       .  A
N816        N818   1.326       .  A
N816       Mn823   2.280   1_565  S
N817        C826   1.358       .  A
N818        N819   1.315       .  A
N818       Mn822   2.433       .  S
N819        C826   1.339       .  A
N820        N821   1.329       .  A
N820       Mn823   2.313   1_565  S
N821        C825   1.361       .  A
Mn822      N1716   2.525       .  S
Cl824     Mn1720   2.558       .  S
Cl824     Mn1731   2.578       .  S
C825        C902   1.514       .  S
C826        C877   1.482       .  S
C827        C829   1.566       .  S
C827        C831   1.629       .  S
C827        C830   1.599       .  S
C827        C851   1.907       .  S
C828        C832   1.574       .  S
C828        C834   1.562       .  S
C828        C833   1.595       .  S
C828        C850   1.860   1_556  S
C829        C837   1.343       .  A
C829        C832   1.472       .  A
C830        C841   1.389       .  A
C830        C833   1.490       .  A
C831        C845   1.405       .  A
C831        C834   1.470       .  A
C832        C835   1.379       .  A
C833        C839   1.383       .  A
C834        C842   1.375       .  A
C835        N836   1.355       .  A
C835        H848   1.072       .  S
N836        C837   1.343       .  A
N836        C894   1.424       .  S
C837        H838   1.095       .  S
C839        N840   1.355       .  A
C839        H849   1.078       .  S
N840        C841   1.357       .  A
N840        C886   1.446       .  S
C841        H847   1.081       .  S
C842        N843   1.346       .  A
C842        H844   1.078       .  S
N843        C845   1.365       .  A
N843        C889   1.453       .  S
C845        H846   1.074       .  S
C850        C852   1.600       .  S
C850        C854   1.591       .  S
C850        C853   1.587       .  S
C851        C855   1.646       .  S
C851        C857   1.566       .  S
C851        C856   1.580       .  S
C852        C860   1.386       .  A
C853        C864   1.382       .  A
C854        C868   1.391       .  A
C855        C858   1.408       .  A
C856        C862   1.371       .  A
C857        C865   1.362       .  A
C858        N859   1.364       .  A
C858        H871   1.106       .  S
N859        C881   1.484       .  S
C860        H861   1.080   1_554  S
C862        N863   1.362       .  A
C862        H872   1.078       .  S
N863        C873   1.427       .  S
C864        H870   1.084   1_554  S
C865        N866   1.350       .  A
C865        H867   1.041       .  S
N866        C878   1.438       .  S
C868        H869   1.076   1_554  S
C873        C874   1.332       .  D
C873        H875   1.091       .  S
C874        H876   1.082       .  S
C877        C878   1.359       .  D
C877        H879   1.084       .  S
C878        H880   1.085       .  S
C881        C882   1.366       .  D
C881        H883   1.088       .  S
C882        H884   1.088       .  S
C885        C886   1.345       .  D
C885        H887   1.088       .  S
C886        H888   1.084       .  S
C889        C890   1.364       .  D
C889        H891   1.086       .  S
C890        H892   1.083       .  S
C893        C894   1.361       .  D
C893        H895   1.084       .  S
C894        H896   1.086       .  S
C897        C898   1.377       .  D
C897        H899   1.083       .  S
C898        H900   1.085       .  S
C901        C902   1.365       .  D
C901        H903   1.086       .  S
C902        H904   1.061       .  S
C905        C906   1.338       .  D
C905        H907   1.084       .  S
C906        H908   1.090       .  S
C909        C910   1.347       .  D
C909        H911   1.087       .  S
C913        C914   1.332       .  D
C913        H915   1.091   1_556  S
C914        H916   1.082       .  S
C917        C918   1.337       .  D
C917        H919   1.087       .  S
C918        H920   1.087   1_556  S
C921        C923   1.606   1_554  S
C921        C925   1.576   1_554  S
C921        C924   1.570   1_554  S
C921        C945   1.859       .  S
C922        C926   1.566       .  S
C922        C928   1.587       .  S
C922        C927   1.580       .  S
C922        C944   1.863       .  S
C923        C931   1.406       .  A
C923       C1156   1.477       .  A
C924        C935   1.376       .  A
C924       C1157   1.475       .  A
C925        C939   1.378   1_556  A
C925       C1158   1.467       .  A
C926       C1153   1.471       .  A
C926        C929   1.363       .  A
C927       C1154   1.467       .  A
C927        C933   1.381       .  A
C928       C1155   1.485       .  A
C928        C936   1.379       .  A
C929        N930   1.353       .  A
C929        H942   1.080       .  S
N930       C1161   1.362       .  A
N930       C1140   1.437       .  S
C931       N1160   1.366       .  A
C931        H932   1.077   1_556  S
C933       N1164   1.356       .  A
C933        H943   1.082       .  S
N934       C1163   1.347       .  A
N934        C935   1.354       .  A
N934       C1378   1.430       .  S
C935        H941   1.082   1_556  S
C936       N1167   1.352       .  A
C936        H938   1.081       .  S
N937       C1166   1.358       .  A
N937        C939   1.349   1_556  A
N937       C1373   1.441       .  S
C939        H940   1.078       .  S
C944        C946   1.579       .  S
C944        C948   1.559       .  S
C944        C947   1.604       .  S
C945        C949   1.564       .  S
C945        C951   1.569       .  S
C945        C950   1.593       .  S
C946        C954   1.374       .  A
C946        C949   1.470       .  A
C947        C958   1.385       .  A
C947        C950   1.494       .  A
C948        C962   1.370       .  A
C948        C951   1.455       .  A
C949        C952   1.353       .  A
C950        C956   1.396       .  A
C951        C959   1.368       .  A
C952        N953   1.350       .  A
C952        H965   1.083       .  S
N953        C954   1.358       .  A
N953       C1127   1.420       .  S
C954        H955   1.080       .  S
C956        N957   1.355       .  A
C956        H966   1.079       .  S
N957        C958   1.358       .  A
N957       C1136   1.455       .  S
C958        H964   1.071       .  S
C959        N960   1.361       .  A
C959        H961   1.078       .  S
N960        C962   1.350       .  A
N960       C1131   1.431       .  S
C962        H963   1.084       .  S
N967        N968   1.331       .  A
N967        N973   1.328       .  A
N967       Mn996   2.320       .  S
N968        C975   1.357       .  A
N969        N971   1.314       .  A
N969        N970   1.327       .  A
N969       Mn985   2.225       .  S
N970        C976   1.350       .  A
N971        N972   1.320       .  A
N971       Mn996   2.124       .  S
N972        C976   1.343       .  A
N973        N974   1.315       .  A
N973       Mn985   2.126       .  S
N974        C975   1.338       .  A
C975       C1147   1.481       .  S
C976       C1115   1.481       .  S
N977        N978   1.312       .  A
N977      Mn1007   2.268   1_455  S
N978       C1446   1.349       .  A
N979        N980   1.323       .  A
N979        N981   1.320       .  A
N979      Mn1445   2.196       .  S
N980        C987   1.349       .  A
N981        N982   1.316       .  A
N982        C987   1.340       .  A
N983        N984   1.310       .  A
N983       Mn985   2.123   1_565  S
Mn985      N1439   2.142   1_545  S
C986       N1438   1.325       .  A
C986       C1503   1.424   1_465  S
C987       C1123   1.454       .  S
N988        N989   1.320       .  A
N988        N994   1.324       .  A
N989        C997   1.349       .  A
N990       N1221   1.312       .  A
N990      Mn1008   2.229       .  S
N991        C998   1.346       .  A
N991       N1220   1.311   1_554  A
N992       N1223   1.323       .  A
N992       Mn996   2.112       .  S
N993       N1222   1.337       .  A
N994        N995   1.318       .  A
N994      Mn1468   2.255       .  S
N995        C997   1.353       .  A
C997       C1139   1.459       .  S
C998       C1721   1.467       .  S
N999       N1000   1.314       .  A
N999       N1005   1.316       .  A
N999      Mn1007   2.213       .  S
N1000      C1010   1.336       .  A
N1001      N1002   1.311       .  A
N1001      N1003   1.316       .  A
N1001     Mn1008   2.196       .  S
N1002      C1011   1.339       .  A
N1003      N1004   1.327       .  A
N1003     Mn1007   2.406       .  S
N1004      C1011   1.354       .  A
N1005      N1006   1.331       .  A
N1005     Mn1008   2.419       .  S
N1006      C1010   1.356       .  A
Mn1007    Cl1469   2.436       .  S
Mn1008     N1454   2.360       .  S
Mn1008    Cl1469   2.447       .  S
Cl1009    Mn1467   2.508   1_445  S
Cl1009    Mn1468   2.556   1_455  S
C1010      C1144   1.474       .  S
C1011      C1120   1.472       .  S
N1012      N1013   1.331       .  A
N1012      N1018   1.316       .  A
N1012     Mn1041   2.263       .  S
N1013      C1020   1.357       .  A
N1014      N1016   1.329       .  A
N1014      N1015   1.336       .  A
N1014     Mn1030   2.348       .  S
N1015      C1021   1.359       .  A
N1016      N1017   1.320       .  A
N1016     Mn1041   2.121       .  S
N1017      C1021   1.337       .  A
N1018      N1019   1.325       .  A
N1018     Mn1030   2.161       .  S
N1019      C1020   1.347       .  A
C1020      C1135   1.504       .  S
C1021      C1104   1.495       .  S
N1022      N1253   1.322       .  A
N1022     Mn1052   2.232       .  S
N1023      C1491   1.361       .  A
N1023      N1252   1.336       .  A
N1024      N1025   1.322       .  A
N1024      N1026   1.320       .  A
N1024     Mn1490   2.208       .  S
N1025      C1032   1.351       .  A
N1026      N1027   1.324       .  A
N1027      C1032   1.356       .  A
N1028      N1259   1.324       .  A
N1028     Mn1030   2.181   1_565  S
N1029      N1258   1.334       .  A
Mn1030     N1484   2.199   1_545  S
C1031      N1483   1.358       .  A
C1031      C1688   1.475       .  S
C1032      C1112   1.478       .  S
N1033      N1034   1.322       .  A
N1033      N1039   1.317       .  A
N1034      C1042   1.348       .  A
N1035      N1036   1.323   1_655  A
N1035     Mn1053   2.232       .  S
N1036      C1043   1.341       .  A
N1037      N1038   1.309       .  A
N1037     Mn1041   2.109       .  S
N1039      N1040   1.312       .  A
N1039     Mn1513   2.121   1_545  S
N1040      C1042   1.337       .  A
C1042      C1128   1.454       .  S
C1043      C1446   1.467       .  S
N1044      N1045   1.312       .  A
N1044      N1050   1.307       .  A
N1044     Mn1052   2.287       .  S
N1045      C1055   1.343       .  A
N1046      N1047   1.317       .  A
N1046      N1048   1.302       .  A
N1046     Mn1053   2.269       .  S
N1047      C1056   1.339       .  A
N1048      N1049   1.310       .  A
N1048     Mn1052   2.345       .  S
N1049      C1056   1.334       .  A
N1050      N1051   1.319       .  A
N1050     Mn1053   2.371       .  S
N1051      C1055   1.355       .  A
Mn1052    Cl1514   2.704       .  S
Mn1053     N1499   2.336       .  S
Mn1053    Cl1514   2.688       .  S
Cl1054    Mn1512   2.590   1_545  S
Cl1054    Mn1513   2.526   1_545  S
C1055      C1132   1.451       .  S
C1056      C1107   1.451       .  S
C1057      C1059   1.570       .  S
C1057      C1061   1.580       .  S
C1057      C1060   1.591       .  S
C1057      C1081   1.855       .  S
C1058      C1062   1.567       .  S
C1058      C1064   1.585       .  S
C1058      C1063   1.582       .  S
C1058      C1080   1.843       .  S
C1059      C1067   1.373       .  A
C1059      C1062   1.458       .  A
C1060      C1071   1.373       .  A
C1060      C1063   1.487       .  A
C1061      C1075   1.378       .  A
C1061      C1064   1.462       .  A
C1062      C1065   1.367       .  A
C1063      C1069   1.387       .  A
C1064      C1072   1.386       .  A
C1065      N1066   1.351       .  A
C1065      H1078   1.080       .  S
N1066      C1067   1.354       .  A
N1066      C1124   1.423       .  S
C1067      H1068   1.079       .  S
C1069      N1070   1.353       .  A
C1069      H1079   1.077       .  S
N1070      C1071   1.352       .  A
N1070      C1116   1.439       .  S
C1071      H1077   1.076       .  S
C1072      N1073   1.354       .  A
C1072      H1074   1.080       .  S
N1073      C1075   1.354       .  A
N1073      C1119   1.436       .  S
C1075      H1076   1.076       .  S
C1080      C1082   1.577       .  S
C1080      C1084   1.561       .  S
C1080      C1083   1.570       .  S
C1081      C1085   1.577       .  S
C1081      C1087   1.566       .  S
C1081      C1086   1.607       .  S
C1082      C1090   1.386       .  A
C1082      C1315   1.484       .  A
C1083      C1094   1.369       .  A
C1083      C1316   1.477       .  A
C1084      C1098   1.372       .  A
C1084      C1317   1.469       .  A
C1085      C1312   1.478       .  A
C1085      C1088   1.379       .  A
C1086      C1313   1.473       .  A
C1086      C1092   1.393       .  A
C1087      C1314   1.471       .  A
C1087      C1095   1.368       .  A
C1088      N1089   1.346       .  A
C1088      H1101   1.076       .  S
N1089      C1320   1.348       .  A
N1089      C1111   1.441       .  S
C1090      N1319   1.351       .  A
C1090      H1091   1.073       .  S
C1092      N1093   1.364       .  A
C1092      H1102   1.080       .  S
N1093      C1324   1.350       .  A
N1093      C1103   1.448       .  S
C1094      N1323   1.351       .  A
C1094      H1100   1.080       .  S
C1095      N1096   1.353       .  A
C1095      H1097   1.075       .  S
N1096      C1328   1.350       .  A
N1096      C1108   1.434       .  S
C1098      N1326   1.345       .  A
C1098      H1099   1.068       .  S
C1103      C1104   1.362       .  D
C1103      H1105   1.084       .  S
C1104      H1106   1.084       .  S
C1107      C1108   1.339       .  D
C1107      H1109   1.078       .  S
C1108      H1110   1.083       .  S
C1111      C1112   1.343       .  D
C1111      H1113   1.089       .  S
C1112      H1114   1.085       .  S
C1115      C1116   1.343       .  D
C1115      H1117   1.085       .  S
C1116      H1118   1.088       .  S
C1119      C1120   1.350       .  D
C1119      H1121   1.089       .  S
C1120      H1122   1.088       .  S
C1123      C1124   1.343       .  D
C1123      H1125   1.086       .  S
C1124      H1126   1.087       .  S
C1127      C1128   1.347       .  D
C1127      H1129   1.086       .  S
C1128      H1130   1.086       .  S
C1131      C1132   1.333       .  D
C1131      H1133   1.095       .  S
C1132      H1134   1.081       .  S
C1135      C1136   1.356       .  D
C1135      H1137   1.080       .  S
C1136      H1138   1.088       .  S
C1139      C1140   1.347       .  D
C1139      H1141   1.085       .  S
C1140      H1372   1.087       .  S
H1142      C1370   1.083       .  S
C1143      N1167   1.446       .  S
C1143      C1144   1.340       .  D
C1143      H1145   1.082       .  S
C1144      H1146   1.087       .  S
C1147      C1148   1.354       .  D
C1147      H1149   1.085       .  S
C1148      N1164   1.434       .  S
C1148      H1150   1.088       .  S
C1151      C1153   1.595       .  S
C1151      C1155   1.605       .  S
C1151      C1154   1.575       .  S
C1151      C1175   1.879       .  S
C1152      C1156   1.652       .  S
C1152      C1158   1.591       .  S
C1152      C1157   1.567       .  S
C1152      C1174   1.894       .  S
C1153      C1161   1.385       .  A
C1154      C1165   1.374       .  A
C1155      C1169   1.394       .  A
C1156      C1159   1.420       .  A
C1157      C1163   1.373       .  A
C1158      C1166   1.392       .  A
C1159      N1160   1.381       .  A
C1159      H1172   1.074       .  S
N1160      C1370   1.495       .  S
C1161      H1162   1.082       .  S
C1163      H1173   1.081       .  S
N1164      C1165   1.351       .  A
C1165      H1171   1.078       .  S
C1166      H1168   1.076       .  S
N1167      C1169   1.364       .  A
C1169      H1170   1.080       .  S
C1174      C1176   1.562       .  S
C1174      C1178   1.579       .  S
C1174      C1177   1.606       .  S
C1175      C1179   1.583       .  S
C1175      C1181   1.571       .  S
C1175      C1180   1.605       .  S
C1176      C1184   1.347       .  A
C1176      C1179   1.480       .  A
C1177      C1188   1.393       .  A
C1177      C1180   1.494       .  A
C1178      C1192   1.376       .  A
C1178      C1181   1.465       .  A
C1179      C1182   1.377       .  A
C1180      C1186   1.393       .  A
C1181      C1189   1.372       .  A
C1182      N1183   1.352       .  A
C1182      H1195   1.076       .  S
N1183      C1184   1.346       .  A
N1183      C1357   1.418       .  S
C1184      H1185   1.075       .  S
C1186      N1187   1.352       .  A
C1186      H1196   1.080       .  S
N1187      C1188   1.360       .  A
N1187      C1366   1.456       .  S
C1188      H1194   1.071       .  S
C1189      N1190   1.361       .  A
C1189      H1191   1.076       .  S
N1190      C1192   1.354       .  A
N1190      C1361   1.438       .  S
C1192      H1193   1.081       .  S
N1197      N1198   1.316       .  A
N1197      N1203   1.315       .  A
N1197     Mn1226   2.390       .  S
N1198      C1205   1.351       .  A
N1199      N1201   1.312       .  A
N1199      N1200   1.332       .  A
N1199     Mn1215   2.496   1_545  S
N1200      C1206   1.372       .  A
N1201      N1202   1.321       .  A
N1201     Mn1226   2.245       .  S
N1202      C1206   1.340       .  A
N1203      N1204   1.314       .  A
N1203     Mn1215   2.376   1_545  S
N1204      C1205   1.354       .  A
C1205      C1377   1.458       .  S
C1206      C1345   1.513       .  S
N1207      N1208   1.320       .  A
N1207     Mn1237   2.249   1_455  S
N1208      C1676   1.346       .  A
N1209      N1210   1.328       .  A
N1209      N1211   1.338       .  A
N1209     Mn1675   2.345       .  S
N1210      C1217   1.358       .  A
N1211      N1212   1.322       .  A
N1212      C1217   1.348       .  A
N1213      N1214   1.302   1_565  A
N1213     Mn1215   2.235       .  S
Mn1215     N1669   2.432       .  S
C1216      N1668   1.322   1_455  A
C1216      C1733   1.367   1_465  S
C1217      C1353   1.467       .  S
N1218      N1219   1.343       .  A
N1218      N1224   1.316       .  A
N1219      C1227   1.359       .  A
N1220     Mn1238   2.249       .  S
N1221      C1228   1.343       .  A
N1222     Mn1226   2.318   1_565  S
N1224      N1225   1.341       .  A
N1224     Mn1698   2.363   1_545  S
N1225      C1227   1.375       .  A
C1227      C1369   1.555       .  S
C1228      C1491   1.473       .  S
N1229      N1230   1.320       .  A
N1229      N1235   1.319       .  A
N1229     Mn1237   2.243       .  S
N1230      C1240   1.343       .  A
N1231      N1232   1.311       .  A
N1231      N1233   1.315       .  A
N1231     Mn1238   2.198       .  S
N1232      C1241   1.340       .  A
N1233      N1234   1.329       .  A
N1233     Mn1237   2.426       .  S
N1234      C1241   1.354       .  A
N1235      N1236   1.325       .  A
N1235     Mn1238   2.372       .  S
N1236      C1240   1.350       .  A
Mn1237    Cl1699   2.489       .  S
Mn1238     N1684   2.290       .  S
Mn1238    Cl1699   2.478       .  S
Cl1239    Mn1697   2.798   1_455  S
Cl1239    Mn1698   2.431   1_455  S
C1240      C1374   1.470       .  S
C1241      C1350   1.472       .  S
N1242      N1243   1.324       .  A
N1242      N1248   1.311       .  A
N1242     Mn1271   2.276       .  S
N1243      C1250   1.361       .  A
N1244      N1246   1.318       .  A
N1244      N1245   1.318       .  A
N1244     Mn1260   2.342       .  S
N1245      C1251   1.349       .  A
N1246      N1247   1.312       .  A
N1246     Mn1271   2.260       .  S
N1247      C1251   1.357       .  A
N1248      N1249   1.325       .  A
N1248     Mn1260   2.239       .  S
N1249      C1250   1.340       .  A
C1250      C1365   1.497       .  S
C1251      C1334   1.453       .  S
N1252     Mn1282   2.301       .  S
N1253      C1721   1.346       .  A
N1254      N1255   1.330       .  A
N1254      N1256   1.323       .  A
N1254     Mn1720   2.415       .  S
N1255      C1262   1.354       .  A
N1256      N1257   1.345       .  A
N1257      C1262   1.371       .  A
N1258     Mn1260   2.362       .  S
Mn1260     N1714   2.391   1_545  S
C1261      N1713   1.356       .  A
C1261      C1458   1.474       .  S
C1262      C1342   1.522       .  S
N1263      N1264   1.324       .  A
N1263      N1269   1.333       .  A
N1264      C1272   1.357       .  A
N1265      N1266   1.320   1_655  A
N1265     Mn1283   2.310       .  S
N1266      C1273   1.349       .  A
N1267      N1268   1.300       .  A
N1267     Mn1271   2.083       .  S
N1269      N1270   1.308       .  A
N1269     Mn1743   2.250   1_545  S
N1270      C1272   1.346       .  A
C1272      C1358   1.465       .  S
C1273      C1676   1.467       .  S
N1274      N1275   1.315       .  A
N1274      N1280   1.307       .  A
N1274     Mn1282   2.204       .  S
N1275      C1285   1.346       .  A
N1276      N1277   1.318       .  A
N1276      N1278   1.307       .  A
N1276     Mn1283   2.281       .  S
N1277      C1286   1.336       .  A
N1278      N1279   1.317       .  A
N1278     Mn1282   2.262       .  S
N1279      C1286   1.343       .  A
N1280      N1281   1.322       .  A
N1280     Mn1283   2.324       .  S
N1281      C1285   1.352       .  A
Mn1282    Cl1744   2.549       .  S
Mn1283     N1729   2.369       .  S
Mn1283    Cl1744   2.527       .  S
Cl1284    Mn1743   2.779   1_545  S
Cl1284    Mn1742   2.424   1_545  S
C1285      C1362   1.464       .  S
C1286      C1337   1.471       .  S
C1287      C1289   1.579       .  S
C1287      C1291   1.599       .  S
C1287      C1290   1.618       .  S
C1287      C1311   1.905       .  S
C1288      C1292   1.588       .  S
C1288      C1294   1.581       .  S
C1288      C1293   1.603       .  S
C1288      C1310   1.889   1_556  S
C1289      C1297   1.364       .  A
C1289      C1292   1.479       .  A
C1290      C1301   1.405       .  A
C1290      C1293   1.477       .  A
C1291      C1305   1.379       .  A
C1291      C1294   1.474       .  A
C1292      C1295   1.385       .  A
C1293      C1299   1.392       .  A
C1294      C1302   1.385       .  A
C1295      N1296   1.353       .  A
C1295      H1308   1.061       .  S
N1296      C1297   1.341       .  A
N1296      C1354   1.436       .  S
C1297      H1298   1.108       .  S
C1299      N1300   1.356       .  A
C1299      H1309   1.077       .  S
N1300      C1301   1.373       .  A
N1300      C1346   1.467       .  S
C1301      H1307   1.079       .  S
C1302      N1303   1.351       .  A
C1302      H1304   1.078       .  S
N1303      C1305   1.350       .  A
N1303      C1349   1.434       .  S
C1305      H1306   1.079       .  S
C1310      C1312   1.600       .  S
C1310      C1314   1.587       .  S
C1310      C1313   1.576       .  S
C1311      C1315   1.657       .  S
C1311      C1317   1.597       .  S
C1311      C1316   1.559       .  S
C1312      C1320   1.391       .  A
C1313      C1324   1.375       .  A
C1314      C1328   1.373       .  A
C1315      C1318   1.419       .  A
C1316      C1322   1.367       .  A
C1317      C1325   1.383       .  A
C1318      N1319   1.370       .  A
C1318      H1331   1.111       .  S
N1319      C1341   1.471       .  S
C1320      H1321   1.079       .  S
C1322      N1323   1.347       .  A
C1322      H1332   1.083       .  S
N1323      C1333   1.423       .  S
C1324      H1330   1.079   1_554  S
C1325      N1326   1.352       .  A
C1325      H1327   1.072       .  S
N1326      C1338   1.444       .  S
C1328      H1329   1.074   1_554  S
C1333      C1334   1.334       .  D
C1333      H1335   1.089       .  S
C1334      H1336   1.087       .  S
C1337      C1338   1.343       .  D
C1337      H1339   1.081       .  S
C1338      H1340   1.077       .  S
C1341      C1342   1.366       .  D
C1341      H1343   1.088       .  S
C1342      H1344   1.089       .  S
C1345      C1346   1.368       .  D
C1345      H1347   1.084       .  S
C1346      H1348   1.083       .  S
C1349      C1350   1.351       .  D
C1349      H1351   1.086       .  S
C1350      H1352   1.089       .  S
C1353      C1354   1.349       .  D
C1353      H1355   1.086       .  S
C1354      H1356   1.095       .  S
C1357      C1358   1.354       .  D
C1357      H1359   1.086       .  S
C1358      H1360   1.086       .  S
C1361      C1362   1.339       .  D
C1361      H1363   1.089       .  S
C1362      H1364   1.081       .  S
C1365      C1366   1.354       .  D
C1365      H1367   1.087       .  S
C1366      H1368   1.081       .  S
C1369      C1370   1.387       .  D
C1369      H1371   1.085       .  S
C1373      C1374   1.337       .  D
C1373      H1375   1.088   1_556  S
C1374      H1376   1.085       .  S
C1377      C1378   1.339       .  D
C1377      H1379   1.086   1_556  S
C1378      H1380   1.089       .  S
C1381      C1383   1.562       .  S
C1381      C1385   1.591       .  S
C1381      C1384   1.641       .  S
C1381      C1405   1.877       .  S
C1382      C1386   1.564       .  S
C1382      C1388   1.624       .  S
C1382      C1387   1.602       .  S
C1382      C1404   1.898       .  S
C1383      C1391   1.365       .  A
C1383      C1616   1.460   1_554  A
C1384      C1395   1.416       .  A
C1384      C1617   1.494   1_554  A
C1385      C1399   1.387       .  A
C1385      C1618   1.455   1_554  A
C1386      C1613   1.483       .  A
C1386      C1389   1.367       .  A
C1387      C1614   1.461       .  A
C1387      C1393   1.389       .  A
C1388      C1615   1.487       .  A
C1388      C1396   1.392       .  A
C1389      N1390   1.341       .  A
C1389      H1402   1.081       .  S
N1390      C1621   1.348       .  A
N1390      C1600   1.414       .  S
C1391      N1620   1.355   1_554  A
C1391      H1392   1.077       .  S
C1393      N1624   1.362       .  A
C1393      H1403   1.073       .  S
N1394      C1623   1.343       .  A
N1394      C1395   1.364   1_556  A
N1394      C1838   1.462       .  S
C1395      H1401   1.070       .  S
C1396      N1627   1.355       .  A
C1396      H1398   1.076       .  S
N1397      C1626   1.361       .  A
N1397      C1399   1.357   1_556  A
N1397      C1833   1.450       .  S
C1399      H1400   1.079       .  S
C1404      C1406   1.603       .  S
C1404      C1408   1.592       .  S
C1404      C1407   1.598       .  S
C1405      C1409   1.622       .  S
C1405      C1411   1.575       .  S
C1405      C1410   1.555       .  S
C1406      C1414   1.391       .  A
C1406      C1409   1.478       .  A
C1407      C1418   1.374       .  A
C1407      C1410   1.471       .  A
C1408      C1422   1.381       .  A
C1408      C1411   1.468       .  A
C1409      C1412   1.402       .  A
C1410      C1416   1.361       .  A
C1411      C1419   1.370       .  A
C1412      N1413   1.370       .  A
C1412      H1425   1.083       .  S
N1413      C1414   1.359       .  A
N1413      C1587   1.465       .  S
C1414      H1415   1.078       .  S
C1416      N1417   1.342       .  A
C1416      H1426   1.085       .  S
N1417      C1418   1.354       .  A
N1417      C1596   1.423       .  S
C1418      H1424   1.067       .  S
C1419      N1420   1.349       .  A
C1419      H1421   1.077       .  S
N1420      C1422   1.353       .  A
N1420      C1591   1.431       .  S
C1422      H1423   1.079       .  S
N1427      N1428   1.335       .  A
N1427      N1433   1.332       .  A
N1427     Mn1456   2.366       .  S
N1428      C1435   1.359       .  A
N1429      N1431   1.322       .  A
N1429      N1430   1.335       .  A
N1429     Mn1445   2.300       .  S
N1430      C1436   1.360       .  A
N1431      N1432   1.330       .  A
N1431     Mn1456   2.143       .  S
N1432      C1436   1.345       .  A
N1433      N1434   1.314       .  A
N1433     Mn1445   2.109       .  S
N1434      C1435   1.335       .  A
C1435      C1607   1.477       .  S
C1436      C1575   1.511       .  S
N1437      N1438   1.302       .  A
N1437     Mn1467   2.144   1_455  S
N1439      N1440   1.315       .  A
N1439      N1441   1.312       .  A
N1440      C1447   1.342       .  A
N1441      N1442   1.316       .  A
N1442      C1447   1.342       .  A
N1443      N1444   1.301       .  A
N1443     Mn1445   2.080       .  S
C1447      C1583   1.449       .  S
N1448      N1449   1.310       .  A
N1448      N1454   1.326       .  A
N1449      C1457   1.341       .  A
N1450      N1681   1.313       .  A
N1450     Mn1468   2.097       .  S
N1451      C1458   1.344       .  A
N1451      N1680   1.353       .  A
N1452      N1683   1.321       .  A
N1452     Mn1456   2.130       .  S
N1453      N1682   1.291   1_556  A
N1454      N1455   1.318       .  A
N1455      C1457   1.348       .  A
C1457      C1599   1.428       .  S
N1459      N1460   1.323       .  A
N1459      N1465   1.331       .  A
N1459     Mn1467   2.110       .  S
N1460      C1470   1.340       .  A
N1461      N1462   1.313       .  A
N1461      N1463   1.313       .  A
N1461     Mn1468   2.087   1_565  S
N1462      C1471   1.332       .  A
N1463      N1464   1.333       .  A
N1463     Mn1467   2.274       .  S
N1464      C1471   1.363       .  A
N1465      N1466   1.322       .  A
N1465     Mn1468   2.318   1_565  S
N1466      C1470   1.346       .  A
C1470      C1604   1.483       .  S
C1471      C1580   1.484       .  S
N1472      N1473   1.328       .  A
N1472      N1478   1.325       .  A
N1472     Mn1501   2.273       .  S
N1473      C1480   1.352       .  A
N1474      N1476   1.327       .  A
N1474      N1475   1.328       .  A
N1474     Mn1490   2.285       .  S
N1475      C1481   1.357       .  A
N1476      N1477   1.313       .  A
N1476     Mn1501   2.110       .  S
N1477      C1481   1.333       .  A
N1478      N1479   1.315       .  A
N1478     Mn1490   2.099       .  S
N1479      C1480   1.337       .  A
C1480      C1595   1.466       .  S
C1481      C1564   1.464       .  S
N1482      N1713   1.324   1_554  A
N1482     Mn1512   2.151   1_455  S
N1483      N1712   1.336       .  A
N1484      N1485   1.314       .  A
N1484      N1486   1.331       .  A
N1485      C1492   1.344       .  A
N1486      N1487   1.326       .  A
N1487      C1492   1.357       .  A
N1488      N1719   1.294   1_554  A
N1488     Mn1490   2.084       .  S
N1489      N1718   1.324       .  A
C1492      C1572   1.469       .  S
N1493      N1494   1.341       .  A
N1493      N1499   1.325       .  A
N1494      C1502   1.367       .  A
N1495      N1496   1.296       .  A
N1495     Mn1513   2.149   1_545  S
N1496      C1503   1.319       .  A
N1497      N1498   1.301       .  A
N1497     Mn1501   2.108       .  S
N1499      N1500   1.333       .  A
N1500      C1502   1.354       .  A
C1502      C1588   1.513       .  S
N1504      N1505   1.318       .  A
N1504      N1510   1.315       .  A
N1504     Mn1512   2.115       .  S
N1505      C1515   1.339       .  A
N1506      N1507   1.322       .  A
N1506      N1508   1.331       .  A
N1506     Mn1513   2.143       .  S
N1507      C1516   1.343       .  A
N1508      N1509   1.340       .  A
N1508     Mn1512   2.370       .  S
N1509      C1516   1.355       .  A
N1510      N1511   1.325       .  A
N1510     Mn1513   2.234       .  S
N1511      C1515   1.351       .  A
C1515      C1592   1.469       .  S
C1516      C1567   1.502       .  S
C1517      C1519   1.586       .  S
C1517      C1521   1.569       .  S
C1517      C1520   1.612       .  S
C1517      C1541   1.876       .  S
C1518      C1522   1.550       .  S
C1518      C1524   1.582       .  S
C1518      C1523   1.605       .  S
C1518      C1540   1.865       .  S
C1519      C1527   1.381       .  A
C1519      C1522   1.462       .  A
C1520      C1531   1.392       .  A
C1520      C1523   1.498       .  A
C1521      C1535   1.376       .  A
C1521      C1524   1.464       .  A
C1522      C1525   1.352       .  A
C1523      C1529   1.395       .  A
C1524      C1532   1.382       .  A
C1525      N1526   1.349       .  A
C1525      H1538   1.082       .  S
N1526      C1527   1.362       .  A
N1526      C1584   1.424       .  S
C1527      H1528   1.080       .  S
C1529      N1530   1.355       .  A
C1529      H1539   1.076       .  S
N1530      C1531   1.360       .  A
N1530      C1576   1.459       .  S
C1531      H1537   1.077       .  S
C1532      N1533   1.354       .  A
C1532      H1534   1.077       .  S
N1533      C1535   1.351       .  A
N1533      C1579   1.434       .  S
C1535      H1536   1.081       .  S
C1540      C1542   1.628       .  S
C1540      C1544   1.567       .  S
C1540      C1543   1.572       .  S
C1541      C1545   1.571       .  S
C1541      C1547   1.615       .  S
C1541      C1546   1.576       .  S
C1542      C1550   1.421       .  A
C1542      C1775   1.489       .  A
C1543      C1554   1.369       .  A
C1543      C1776   1.474       .  A
C1544      C1558   1.377       .  A
C1544      C1777   1.449       .  A
C1545      C1772   1.479       .  A
C1545      C1548   1.370       .  A
C1546      C1773   1.470       .  A
C1546      C1552   1.373       .  A
C1547      C1774   1.477       .  A
C1547      C1555   1.400       .  A
C1548      N1549   1.350       .  A
C1548      H1561   1.078       .  S
N1549      C1780   1.357       .  A
N1549      C1571   1.432       .  S
C1550      N1779   1.370       .  A
C1550      H1551   1.076       .  S
C1552      N1553   1.353       .  A
C1552      H1562   1.076       .  S
N1553      C1784   1.351       .  A
N1553      C1563   1.424       .  S
C1554      N1783   1.348       .  A
C1554      H1560   1.082       .  S
C1555      N1556   1.369       .  A
C1555      H1557   1.077       .  S
N1556      C1788   1.353       .  A
N1556      C1568   1.459       .  S
C1558      N1786   1.353       .  A
C1558      H1559   1.077       .  S
C1563      C1564   1.343       .  D
C1563      H1565   1.089       .  S
C1564      H1566   1.082       .  S
C1567      C1568   1.357       .  D
C1567      H1569   1.087       .  S
C1568      H1570   1.083       .  S
C1571      C1572   1.350       .  D
C1571      H1573   1.088       .  S
C1572      H1574   1.084       .  S
C1575      C1576   1.357       .  D
C1575      H1577   1.077       .  S
C1576      H1578   1.087       .  S
C1579      C1580   1.355       .  D
C1579      H1581   1.088       .  S
C1580      H1582   1.083       .  S
C1583      C1584   1.343       .  D
C1583      H1585   1.087       .  S
C1584      H1586   1.087       .  S
C1587      C1588   1.362       .  D
C1587      H1589   1.087       .  S
C1588      H1590   1.085       .  S
C1591      C1592   1.341       .  D
C1591      H1593   1.089       .  S
C1592      H1594   1.076       .  S
C1595      C1596   1.338       .  D
C1595      H1597   1.081       .  S
C1596      H1598   1.088       .  S
C1599      C1600   1.337       .  D
C1599      H1601   1.091       .  S
C1600      H1832   1.085       .  S
H1602      C1830   1.087       .  S
C1603      N1627   1.442       .  S
C1603      C1604   1.342       .  D
C1603      H1605   1.082       .  S
C1604      H1606   1.090       .  S
C1607      C1608   1.335       .  D
C1607      H1609   1.085       .  S
C1608      N1624   1.443       .  S
C1608      H1610   1.087       .  S
C1611      C1613   1.581       .  S
C1611      C1615   1.576       .  S
C1611      C1614   1.562       .  S
C1611      C1635   1.876       .  S
C1612      C1616   1.560       .  S
C1612      C1618   1.565       .  S
C1612      C1617   1.570       .  S
C1612      C1634   1.830       .  S
C1613      C1621   1.379       .  A
C1614      C1625   1.374       .  A
C1615      C1629   1.380       .  A
C1616      C1619   1.355       .  A
C1617      C1623   1.382       .  A
C1618      C1626   1.381       .  A
C1619      N1620   1.352       .  A
C1619      H1632   1.086       .  S
N1620      C1830   1.408       .  S
C1621      H1622   1.074       .  S
C1623      H1633   1.078       .  S
N1624      C1625   1.344       .  A
C1625      H1631   1.079       .  S
C1626      H1628   1.080       .  S
N1627      C1629   1.343       .  A
C1629      H1630   1.078       .  S
C1634      C1636   1.579       .  S
C1634      C1638   1.571       .  S
C1634      C1637   1.575       .  S
C1635      C1639   1.609       .  S
C1635      C1641   1.582       .  S
C1635      C1640   1.583       .  S
C1636      C1644   1.381       .  A
C1636      C1639   1.481       .  A
C1637      C1648   1.376       .  A
C1637      C1640   1.466       .  A
C1638      C1652   1.388       .  A
C1638      C1641   1.458       .  A
C1639      C1642   1.400       .  A
C1640      C1646   1.378       .  A
C1641      C1649   1.373       .  A
C1642      N1643   1.358       .  A
C1642      H1655   1.081       .  S
N1643      C1644   1.351       .  A
N1643      C1817   1.444       .  S
C1644      H1645   1.079       .  S
C1646      N1647   1.359       .  A
C1646      H1656   1.076       .  S
N1647      C1648   1.349       .  A
N1647      C1826   1.437       .  S
C1648      H1654   1.080       .  S
C1649      N1650   1.348       .  A
C1649      H1651   1.065       .  S
N1650      C1652   1.359       .  A
N1650      C1821   1.441       .  S
C1652      H1653   1.084       .  S
N1657      N1658   1.333       .  A
N1657      N1663   1.325       .  A
N1657     Mn1686   2.356       .  S
N1658      C1665   1.354       .  A
N1659      N1661   1.325       .  A
N1659      N1660   1.333       .  A
N1659     Mn1675   2.395       .  S
N1660      C1666   1.350       .  A
N1661      N1662   1.325       .  A
N1661     Mn1686   2.129       .  S
N1662      C1666   1.347       .  A
N1663      N1664   1.327       .  A
N1663     Mn1675   2.162       .  S
N1664      C1665   1.346       .  A
C1665      C1837   1.514       .  S
C1666      C1805   1.492       .  S
N1667      N1668   1.284   1_455  A
N1667     Mn1697   2.333   1_455  S
N1669      N1670   1.329       .  A
N1669      N1671   1.323       .  A
N1670      C1677   1.370       .  A
N1671      N1672   1.300       .  A
N1672      C1677   1.325       .  A
N1673      N1674   1.314       .  A
N1673     Mn1675   2.350       .  S
C1677      C1813   1.483       .  S
N1678      N1679   1.315       .  A
N1678      N1684   1.322       .  A
N1679      C1687   1.346       .  A
N1680     Mn1698   2.370   1_455  S
N1681      C1688   1.341       .  A
N1682     Mn1686   2.317   1_554  S
N1684      N1685   1.308       .  A
N1685      C1687   1.342       .  A
C1687      C1829   1.422       .  S
N1689      N1690   1.317       .  A
N1689      N1695   1.319       .  A
N1689     Mn1697   2.214       .  S
N1690      C1700   1.344       .  A
N1691      N1692   1.320       .  A
N1691      N1693   1.312       .  A
N1691     Mn1698   2.161       .  S
N1692      C1701   1.335       .  A
N1693      N1694   1.326       .  A
N1693     Mn1697   2.274       .  S
N1694      C1701   1.358       .  A
N1695      N1696   1.331       .  A
N1695     Mn1698   2.331       .  S
N1696      C1700   1.361       .  A
C1700      C1834   1.488       .  S
C1701      C1810   1.485       .  S
N1702      N1703   1.322       .  A
N1702      N1708   1.300       .  A
N1702     Mn1731   2.388       .  S
N1703      C1710   1.352       .  A
N1704      N1706   1.302       .  A
N1704      N1705   1.320       .  A
N1704     Mn1720   2.352       .  S
N1705      C1711   1.355       .  A
N1706      N1707   1.311       .  A
N1706     Mn1731   2.278       .  S
N1707      C1711   1.339       .  A
N1708      N1709   1.314       .  A
N1708     Mn1720   2.298       .  S
N1709      C1710   1.343       .  A
C1710      C1825   1.456       .  S
C1711      C1794   1.451       .  S
N1712     Mn1742   2.378   1_545  S
N1714      N1715   1.330       .  A
N1714      N1716   1.316       .  A
N1715      C1722   1.355       .  A
N1716      N1717   1.354       .  A
N1717      C1722   1.382       .  A
N1718     Mn1720   2.319       .  S
C1722      C1802   1.567       .  S
N1723      N1724   1.330       .  A
N1723      N1729   1.322       .  A
N1724      C1732   1.355       .  A
N1725      N1726   1.288       .  A
N1725     Mn1743   2.322   1_545  S
N1726      C1733   1.325       .  A
N1727      N1728   1.320       .  A
N1727     Mn1731   2.316       .  S
N1729      N1730   1.329       .  A
N1730      C1732   1.354       .  A
C1732      C1818   1.486       .  S
N1734      N1735   1.321       .  A
N1734      N1740   1.319       .  A
N1734     Mn1742   2.258       .  S
N1735      C1745   1.338       .  A
N1736      N1737   1.324       .  A
N1736      N1738   1.316       .  A
N1736     Mn1743   2.244       .  S
N1737      C1746   1.353       .  A
N1738      N1739   1.312       .  A
N1738     Mn1742   2.364       .  S
N1739      C1746   1.331       .  A
N1740      N1741   1.328       .  A
N1740     Mn1743   2.288       .  S
N1741      C1745   1.349       .  A
C1745      C1822   1.477       .  S
C1746      C1797   1.463       .  S
C1747      C1749   1.557       .  S
C1747      C1751   1.617       .  S
C1747      C1750   1.592       .  S
C1747      C1771   1.896       .  S
C1748      C1752   1.559       .  S
C1748      C1754   1.577       .  S
C1748      C1753   1.596       .  S
C1748      C1770   1.868   1_556  S
C1749      C1757   1.346       .  A
C1749      C1752   1.476       .  A
C1750      C1761   1.383       .  A
C1750      C1753   1.479       .  A
C1751      C1765   1.397       .  A
C1751      C1754   1.476       .  A
C1752      C1755   1.361       .  A
C1753      C1759   1.387       .  A
C1754      C1762   1.375       .  A
C1755      N1756   1.345       .  A
C1755      H1768   1.081       .  S
N1756      C1757   1.352       .  A
N1756      C1814   1.411       .  S
C1757      H1758   1.080       .  S
C1759      N1760   1.359       .  A
C1759      H1769   1.076       .  S
N1760      C1761   1.353       .  A
N1760      C1806   1.447       .  S
C1761      H1767   1.075       .  S
C1762      N1763   1.351       .  A
C1762      H1764   1.080       .  S
N1763      C1765   1.363       .  A
N1763      C1809   1.451       .  S
C1765      H1766   1.074       .  S
C1770      C1772   1.590       .  S
C1770      C1774   1.582       .  S
C1770      C1773   1.574       .  S
C1771      C1775   1.652       .  S
C1771      C1777   1.552       .  S
C1771      C1776   1.586       .  S
C1772      C1780   1.382       .  A
C1773      C1784   1.372       .  A
C1774      C1788   1.378       .  A
C1775      C1778   1.423       .  A
C1776      C1782   1.375       .  A
C1777      C1785   1.362       .  A
C1778      N1779   1.380       .  A
C1778      H1791   1.075       .  S
N1779      C1801   1.506       .  S
C1780      H1781   1.082       .  S
C1782      N1783   1.362       .  A
C1782      H1792   1.081       .  S
N1783      C1793   1.432       .  S
C1784      H1790   1.083   1_554  S
C1785      N1786   1.344       .  A
C1785      H1787   1.073       .  S
N1786      C1798   1.430       .  S
C1788      H1789   1.078   1_554  S
C1793      C1794   1.330       .  D
C1793      H1795   1.088       .  S
C1794      H1796   1.084       .  S
C1797      C1798   1.357       .  D
C1797      H1799   1.084       .  S
C1798      H1800   1.078       .  S
C1801      C1802   1.387       .  D
C1801      H1803   1.083       .  S
C1802      H1804   1.085       .  S
C1805      C1806   1.351       .  D
C1805      H1807   1.086       .  S
C1806      H1808   1.086       .  S
C1809      C1810   1.358       .  D
C1809      H1811   1.084       .  S
C1810      H1812   1.086       .  S
C1813      C1814   1.321       .  D
C1813      H1815   1.083       .  S
C1814      H1816   1.087       .  S
C1817      C1818   1.345       .  D
C1817      H1819   1.091       .  S
C1818      H1820   1.085       .  S
C1821      C1822   1.348       .  D
C1821      H1823   1.080       .  S
C1822      H1824   1.090       .  S
C1825      C1826   1.337       .  D
C1825      H1827   1.084       .  S
C1826      H1828   1.089       .  S
C1829      C1830   1.338       .  D
C1829      H1831   1.088       .  S
C1833      C1834   1.344       .  D
C1833      H1835   1.088   1_556  S
C1834      H1836   1.086       .  S
C1837      C1838   1.362       .  D
C1837      H1839   1.088       .  S
C1838      H1840   1.079       .  S
