geometry optimzed in LAMMPS
_audit_creation_date              2020-11-30 
_audit_creation_method            'lammps2cif' 
_symmetry_space_group_name_H-M    'P1' 
_symmetry_Int_Tables_number       1 
_symmetry_cell_setting            triclinic 
loop_ 
_symmetry_equiv_pos_as_xyz 
  x,y,z 
_cell_length_a                    41.1820157 
_cell_length_b                    41.31884740526749 
_cell_length_c                    47.76329625978512 
_cell_angle_alpha                 89.71433196006356 
_cell_angle_beta                  90.30641356935845 
_cell_angle_gamma                 125.1794546083775 
loop_ 
_atom_site_label 
_atom_site_type_symbol 
_atom_site_fract_x 
_atom_site_fract_y 
_atom_site_fract_z 
_atom_site_charge 
O1          O  0.44833271  0.91086049  0.95449901    -0.81000
O2          O  0.55654064  0.03605529  0.05007199    -0.65700
O3          O  0.47472468  0.96269212  0.00006076    -1.12300
C4          C  0.50496349  0.07058048  0.94550062     1.05900
O5          O  0.56317515  0.09187992  0.03814564    -0.78900
O6          O  0.48456225  0.05424882  0.02156274    -0.66400
Ni7        Ni  0.47362045  0.91721744  0.99031749     1.34900
C8          C  0.45230663  0.02876393  0.00896505     0.84700
O9          O  0.49988337  0.96015381  0.05365241    -0.79400
O10         O  0.49481754  0.91445646  0.02585781    -0.89700
C11         C  0.57146049  0.07239574  0.05358222     0.84200
O12         O  0.52597192  0.94942620  0.97485035    -0.67900
O13         O  0.51078843  0.08612457  0.96953192    -0.87200
C14         C  0.55681692  0.97442769  0.98900773     0.85100
C15         C  0.49837121  0.92890523  0.05010928     1.06600
H16         H  0.55583901  0.04456358  0.98658475     0.38400
O17         O  0.53114888  0.03700809  0.99497124    -1.09800
O18         O  0.45128089  0.00986793  0.98740547    -0.66500
Ni19       Ni  0.48830538  0.00051603  0.97089507     1.26300
O20         O  0.55515983  0.99129654  0.01074016    -0.66700
O21         O  0.50282010  0.03900381  0.94198392    -0.79000
C22         C  0.43476049  0.92787725  0.94172965     0.84400
O23         O  0.44560859  0.96274736  0.94732795    -0.66200
Ni24       Ni  0.53509098  0.08436022  0.00374826     1.27400
Ni25       Ni  0.51605927  0.99916065  0.02490497     1.26100
H26         H  0.44938870  0.95358896  0.00817187     0.39000
O27         O  0.57508043  0.58854292  0.01942520    -0.81000
O28         O  0.42548878  0.43710540  0.95898845    -0.65700
O29         O  0.49647641  0.52478577  0.00608514    -1.12300
C30         C  0.50184351  0.43437871  0.06088563     1.05900
O31         O  0.39770130  0.38877575  0.99095758    -0.78900
O32         O  0.41352799  0.43284487  0.03921440    -0.66400
Ni33       Ni  0.53915122  0.57203112  0.98785604     1.34900
C34         C  0.43328114  0.46166441  0.05613873     0.84700
O35         O  0.44712294  0.51075948  0.96091725    -0.79400
O36         O  0.50835387  0.56504355  0.95466589    -0.89700
C37         C  0.39956255  0.40165617  0.96631458     0.84200
O38         O  0.55926463  0.54471048  0.97121796    -0.67900
O39         O  0.46462600  0.41308532  0.05598330    -0.87200
C40         C  0.53979971  0.51540815  0.95462571     0.85100
C41         C  0.47131071  0.54385233  0.94922224     1.06600
H42         H  0.49088273  0.44598518  0.99305084     0.38400
O43         O  0.47589013  0.45265711  0.00404087    -1.09800
O44         O  0.47121894  0.48445290  0.05596414    -0.66500
Ni45       Ni  0.51118628  0.49609311  0.02802096     1.26300
O46         O  0.50181968  0.49281175  0.95434546    -0.66700
O47         O  0.52574701  0.46676584  0.04838267    -0.79000
C48         C  0.57372293  0.57519258  0.04378266     0.84400
O49         O  0.54722533  0.53993820  0.05101977    -0.66200
Ni50       Ni  0.43358413  0.40557219  0.02262730     1.27400
Ni51       Ni  0.46134988  0.48132254  0.98186340     1.26100
H52         H  0.48139348  0.53128386  0.01713119     0.39000
O53         O  0.55164592  0.08308333  0.45618685    -0.81000
O54         O  0.43368111  0.95388904  0.54733416    -0.65700
O55         O  0.52069942  0.02925431  0.50118816    -1.12300
C56         C  0.49119112  0.92150051  0.44655683     1.05900
O57         O  0.43794372  0.90285385  0.54160701    -0.78900
O58         O  0.51419452  0.93781510  0.52204614    -0.66400
Ni59       Ni  0.52387999  0.07589371  0.49075966     1.34900
C60         C  0.54628200  0.96473708  0.51009398     0.84700
O61         O  0.48929474  0.03007765  0.55313425    -0.79400
O62         O  0.49988484  0.07803952  0.52482882    -0.89700
C63         C  0.42436781  0.91985343  0.55407964     0.84200
O64         O  0.47319817  0.04543627  0.47277128    -0.67900
O65         O  0.48320814  0.90480131  0.47049202    -0.87200
C66         C  0.44075830  0.01960959  0.48496864     0.85100
C67         C  0.49240163  0.06209286  0.54896563     1.06600
H68         H  0.44091778  0.94637141  0.48593691     0.38400
O69         O  0.46540479  0.95486493  0.49531555    -1.09800
O70         O  0.54668092  0.98391476  0.48884201    -0.66500
Ni71       Ni  0.50879822  0.99200947  0.47183436     1.26300
O72         O  0.43955420  0.00060517  0.50665080    -0.66700
O73         O  0.49571622  0.95425324  0.44291228    -0.79000
C74         C  0.56342154  0.06502155  0.44289714     0.84400
O75         O  0.55149331  0.02981852  0.44839181    -0.66200
Ni76       Ni  0.46232747  0.90825280  0.50573336     1.27400
Ni77       Ni  0.47682905  0.99211644  0.52437906     1.26100
H78         H  0.54504845  0.03745043  0.51062210     0.39000
O79         O  0.09020802  0.56575536  0.03470882    -0.81000
O80         O  0.95424993  0.44629554  0.94901065    -0.65700
O81         O  0.03270272  0.53314214  0.99340539    -1.12300
C82         C  0.92248614  0.49819385  0.05007421     1.05900
O83         O  0.91203402  0.46335954  0.95049566    -0.78900
O84         O  0.94047743  0.53302403  0.97881068    -0.66400
Ni85       Ni  0.08044076  0.53630765  0.00110728     1.34900
C86         C  0.96835724  0.56299654  0.99209847     0.84700
O87         O  0.03091485  0.50093498  0.94109126    -0.79400
O88         O  0.07980312  0.51005296  0.96756040    -0.89700
C89         C  0.92305936  0.44256282  0.94062155     0.84200
O90         O  0.05214272  0.48677290  0.02023864    -0.67900
O91         O  0.90503096  0.49025112  0.02640453    -0.87200
C92         C  0.02408309  0.45434967  0.00926261     0.85100
C93         C  0.06240342  0.50256952  0.94407516     1.06600
H94         H  0.94819416  0.45445135  0.00830678     0.38400
O95         O  0.95789827  0.47960287  0.99959506    -1.09800
O96         O  0.98949837  0.56064011  0.01046635    -0.66500
Ni97       Ni  0.99593196  0.52041716  0.02398518     1.26300
O98         O  0.00314456  0.45290937  0.98865352    -0.66700
O99         O  0.95735942  0.50642989  0.05306086    -0.79000
C100        C  0.07206809  0.57471208  0.05078910     0.84400
O101        O  0.03536328  0.56023857  0.04861796    -0.66200
Ni102      Ni  0.91218345  0.47829142  0.98896810     1.27400
Ni103      Ni  0.99437292  0.48976512  0.97061836     1.26100
H104        H  0.04019464  0.55748020  0.98436452     0.39000
O105        O  0.90017015  0.43744263  0.53886540    -0.81000
O106        O  0.02780087  0.55583704  0.44830830    -0.65700
O107        O  0.95490155  0.46912715  0.49518736    -1.12300
C108        C  0.06790262  0.51146748  0.55038737     1.05900
O109        O  0.07463270  0.54493907  0.45087662    -0.78900
O110        O  0.05023267  0.47680438  0.47898068    -0.66400
Ni111      Ni  0.90610221  0.46306817  0.50375449     1.34900
C112        C  0.02375361  0.44619786  0.49242601     0.84700
O113        O  0.95252659  0.49712655  0.44207838    -0.79400
O114        O  0.90257437  0.48442570  0.46881692    -0.89700
C115        C  0.06004623  0.56210376  0.44003794     0.84200
O116        O  0.93304878  0.51409173  0.52066873    -0.67900
O117        O  0.08490743  0.51978121  0.52664069    -0.87200
C118        C  0.95928201  0.54650721  0.50867246     0.85100
C119        C  0.91910914  0.49140924  0.44507013     1.06600
H120        H  0.03707445  0.55153255  0.50831189     0.38400
O121        O  0.02882907  0.52649153  0.50000314    -1.09800
O122        O  0.00282347  0.44719771  0.51150732    -0.66500
Ni123      Ni  0.99321464  0.48501651  0.52504114     1.26300
O124        O  0.97968038  0.54813125  0.48787763    -0.66700
O125        O  0.03280056  0.50209408  0.55363657    -0.79000
C126        C  0.91995884  0.42908603  0.55386257     0.84400
O127        O  0.95646690  0.44406825  0.55011019    -0.66200
Ni128      Ni  0.07611118  0.53097365  0.48931742     1.27400
Ni129      Ni  0.99067530  0.51245428  0.47124201     1.26100
H130        H  0.94832761  0.44489698  0.48665827     0.39000
N131        N  0.01807088  0.40903773  0.48700348    -0.03500
C132        C  0.04676189  0.40244032  0.48565486    -0.01000
C133        C  0.03011113  0.36233836  0.48718922    -0.23800
C134        C  0.98988157  0.34349594  0.48963619    -0.24000
C135        C  0.98333041  0.37273032  0.48962799    -0.01100
H136        H  0.04561559  0.34831801  0.48635805     0.12700
H137        H  0.96765933  0.31182562  0.49049164     0.12800
C138        C  0.51808475  0.90150583  0.37710883     0.80100
N139        N  0.50749652  0.91787125  0.39674207    -0.78200
C140        C  0.49733341  0.90218948  0.42315587     0.82600
N141        N  0.49702259  0.86999022  0.42937305    -0.78100
C142        C  0.50805693  0.85384798  0.41042105     0.82700
N143        N  0.51881902  0.86992184  0.38432488    -0.79800
C144        C  0.61835763  0.09259357  0.37539307     0.80100
N145        N  0.65285525  0.12714569  0.38297800    -0.78200
C146        C  0.65786724  0.14223612  0.40910419     0.82600
N147        N  0.62787433  0.12226540  0.42789686    -0.78100
C148        C  0.59382479  0.08695637  0.42114707     0.82700
N149        N  0.58901576  0.07203599  0.39484099    -0.79800
N150        N  0.61672754  0.61044311  0.45564546    -0.03500
C151        C  0.62557782  0.64629723  0.44802636    -0.01000
C152        C  0.66337719  0.66950462  0.43684177    -0.23800
C153        C  0.67840999  0.64717710  0.43790876    -0.24000
C154        C  0.64923285  0.61121856  0.44969198    -0.01100
H155        H  0.67823207  0.69926116  0.42861734     0.12700
H156        H  0.70750854  0.65621439  0.43101213     0.12800
C157        C  0.89347251  0.50304027  0.37251763     0.80100
N158        N  0.91285548  0.49949673  0.39427353    -0.78200
C159        C  0.89859661  0.49414290  0.42083468     0.82600
N160        N  0.86493200  0.49199819  0.42544616    -0.78100
C161        C  0.84551900  0.49576933  0.40413572     0.82700
N162        N  0.86013199  0.50154097  0.37775996    -0.79800
C163        C  0.09198610  0.61657337  0.37254537     0.80100
N164        N  0.12623359  0.65095755  0.38092421    -0.78200
C165        C  0.13921867  0.65572960  0.40781673     0.82600
N166        N  0.11756206  0.62586524  0.42632974    -0.78100
C167        C  0.08294957  0.59203564  0.41858918     0.82700
N168        N  0.06996617  0.58719062  0.39166954    -0.79800
N169        N  0.40445196  0.01362812  0.47535506    -0.03500
C170        C  0.40040988  0.04112696  0.46367565    -0.01000
C171        C  0.36075127  0.02599077  0.46023715    -0.23800
C172        C  0.33954096  0.98780078  0.47018577    -0.24000
C173        C  0.36701283  0.98085829  0.47916484    -0.01100
H174        H  0.34862195  0.04093945  0.45111448     0.12700
H175        H  0.30761480  0.96652212  0.46918090     0.12800
C176        C  0.40990753  0.49499163  0.38478838     0.80100
N177        N  0.43156557  0.48764189  0.40210656    -0.78200
C178        C  0.42210021  0.47998636  0.42985446     0.82600
N179        N  0.39129727  0.47957445  0.44002104    -0.78100
C180        C  0.37032741  0.48796588  0.42339720     0.82700
N181        N  0.37978024  0.49562440  0.39582430    -0.79800
C182        C  0.54331086  0.42162852  0.38377504     0.80100
N183        N  0.53322925  0.43896992  0.40276657    -0.78200
C184        C  0.52717472  0.42726184  0.43004273     0.82600
N185        N  0.53028700  0.39770299  0.43809299    -0.78100
C186        C  0.54082736  0.38047612  0.41964280     0.82700
N187        N  0.54768199  0.39287476  0.39255500    -0.79800
C188        C  0.51995625  0.90811515  0.12142978     0.80100
N189        N  0.51011713  0.92395657  0.10066635    -0.78200
C190        C  0.50331016  0.90929826  0.07406199     0.82600
N191        N  0.50486263  0.87795673  0.06867240    -0.78100
C192        C  0.51511498  0.86234991  0.08892604     0.82700
N193        N  0.52328232  0.87799854  0.11509839    -0.79800
C194        C  0.62795173  0.09791633  0.12031507     0.80100
N195        N  0.66020142  0.13499887  0.11403401    -0.78200
C196        C  0.66277316  0.15204915  0.08893934     0.82600
N197        N  0.63299405  0.13145123  0.07005766    -0.78100
C198        C  0.60138873  0.09406010  0.07558199     0.82700
N199        N  0.59865769  0.07722441  0.10084071    -0.79800
N200        N  0.60386914  0.60070623  0.06382653    -0.03500
C201        C  0.62523473  0.59178777  0.07969183    -0.01000
C202        C  0.65114675  0.62322785  0.09694095    -0.23800
C203        C  0.64571002  0.65245339  0.09153707    -0.24000
C204        C  0.61642169  0.63797751  0.07125019    -0.01100
H205        H  0.67259751  0.62513778  0.11131385     0.12700
H206        H  0.66119087  0.68112132  0.10157360     0.12800
C207        C  0.89589060  0.51005541  0.12212033     0.80100
N208        N  0.86078492  0.50522257  0.11670727    -0.78200
C209        C  0.84494422  0.49657851  0.09050109     0.82600
N210        N  0.86510306  0.49339867  0.06954801    -0.78100
C211        C  0.90045170  0.49858139  0.07436012     0.82700
N212        N  0.91570102  0.50658493  0.10083828    -0.79800
C213        C  0.10465306  0.63022088  0.11766444     0.80100
N214        N  0.14169141  0.66156508  0.11047927    -0.78200
C215        C  0.15643050  0.66441890  0.08455035     0.82600
N216        N  0.13354258  0.63548596  0.06563084    -0.78100
C217        C  0.09598182  0.60466050  0.07216664     0.82700
N218        N  0.08148803  0.60187369  0.09827157    -0.79800
N219        N  0.41619029  0.02372326  0.01740746    -0.03500
C220        C  0.41204212  0.05346125  0.02222587    -0.01000
C221        C  0.37250980  0.03963433  0.02106692    -0.23800
C222        C  0.35141686  0.99980184  0.01556839    -0.24000
C223        C  0.37891520  0.99087674  0.01338211    -0.01100
H224        H  0.36032795  0.05653439  0.02446144     0.12700
H225        H  0.31941096  0.97928476  0.01440386     0.12800
C226        C  0.39978068  0.47440035  0.12484841     0.80100
N227        N  0.42209975  0.47208946  0.10500616    -0.78200
C228        C  0.41158747  0.46803149  0.07737101     0.82600
N229        N  0.37930645  0.46729787  0.06962049    -0.78100
C230        C  0.35796834  0.47145255  0.08909313     0.82700
N231        N  0.36820407  0.47443782  0.11650199    -0.79800
C232        C  0.53951191  0.41481601  0.12494806     0.80100
N233        N  0.54971715  0.39150701  0.11390507    -0.78200
C234        C  0.54408199  0.38202065  0.08629147     0.82600
N235        N  0.52865269  0.39657950  0.06959250    -0.78100
C236        C  0.51807072  0.41953003  0.08017034     0.82700
N237        N  0.52321845  0.42858959  0.10794836    -0.79800
N238        N  0.01619706  0.41771959  0.01950119    -0.03500
C239        C  0.04265950  0.40852789  0.02404242    -0.01000
C240        C  0.02280308  0.36818537  0.02818194    -0.23800
C241        C  0.98300467  0.35190260  0.02601210    -0.24000
C242        C  0.97986925  0.38280190  0.02052615    -0.01100
H243        H  0.03601853  0.35223751  0.03182232     0.12700
H244        H  0.95890995  0.32092596  0.02832041     0.12800
O245        O  0.39787118  0.40032089  0.51207537    -0.81000
O246        O  0.55499695  0.55071323  0.46187654    -0.65700
O247        O  0.48104083  0.45807390  0.50444403    -1.12300
C248        C  0.47403572  0.54662428  0.56177085     1.05900
O249        O  0.58592820  0.58885833  0.49898741    -0.78900
O250        O  0.56162947  0.55015415  0.54876116    -0.66400
Ni251      Ni  0.43884086  0.41119648  0.48579619     1.34900
C252        C  0.54137979  0.51701848  0.56132422     0.84700
O253        O  0.53115899  0.47623038  0.45813608    -0.79400
O254        O  0.47491652  0.41471008  0.45835978    -0.89700
C255        C  0.58412423  0.58200090  0.47288836     0.84200
O256        O  0.42344115  0.43713801  0.46148916    -0.67900
O257        O  0.50986633  0.57202056  0.55435021    -0.87200
C258        C  0.44332471  0.47065264  0.44935411     0.85100
C259        C  0.51006853  0.44053296  0.44978302     1.06600
H260        H  0.48851819  0.53774455  0.49647704     0.38400
O261        O  0.50342830  0.53018414  0.50679992    -1.09800
O262        O  0.50461979  0.49114667  0.55665052    -0.66500
Ni263      Ni  0.46661605  0.48443312  0.52892250     1.26300
O264        O  0.47962762  0.49727442  0.45472018    -0.66700
O265        O  0.45246197  0.51163656  0.55229552    -0.79000
C266        C  0.39986299  0.40664899  0.53829271     0.84400
O267        O  0.42932191  0.43763372  0.54928014    -0.66200
Ni268      Ni  0.54544922  0.57665280  0.52595207     1.27400
Ni269      Ni  0.51768537  0.50375641  0.48212184     1.26100
H270        H  0.49610224  0.45076549  0.51483967     0.39000
C271        C  0.44134454  0.56603953  0.62756948     0.80100
N272        N  0.45162412  0.54873618  0.60875777    -0.78200
C273        C  0.45659878  0.55953144  0.58133217     0.82600
N274        N  0.45150523  0.58760986  0.57278094    -0.78100
C275        C  0.44098870  0.60490693  0.59115861     0.82700
N276        N  0.43609736  0.59406042  0.61852192    -0.79800
C277        C  0.57811294  0.49783482  0.62648508     0.80100
N278        N  0.55589141  0.50425139  0.60903367    -0.78200
C279        C  0.56241844  0.50737784  0.58078801     0.82600
N280        N  0.59089320  0.50414056  0.57020835    -0.78100
C281        C  0.61305553  0.49771064  0.58723871     0.82700
N282        N  0.60665659  0.49487452  0.61527298    -0.79800
N283        N  0.58337771  0.97227662  0.51958450    -0.03500
C284        C  0.58957480  0.94476359  0.52802837    -0.01000
C285        C  0.62974865  0.96103202  0.52896962    -0.23800
C286        C  0.64908817  0.99998080  0.52114149    -0.24000
C287        C  0.62008470  0.00616948  0.51551825    -0.01100
H288        H  0.64349576  0.94641348  0.53545376     0.12700
H289        H  0.68091646  0.02200107  0.52110260     0.12800
C290        C  0.89338801  0.37212028  0.62019766     0.80100
N291        N  0.85786982  0.33862901  0.61269518    -0.78200
C292        C  0.84189080  0.33503234  0.58700533     0.82600
N293        N  0.86194845  0.36553251  0.56864749    -0.78100
C294        C  0.89814618  0.39859094  0.57536930     0.82700
N295        N  0.91397507  0.40200369  0.60120903    -0.79800
C296        C  0.09339355  0.49669699  0.62178132     0.80100
N297        N  0.07476003  0.50254219  0.60078833    -0.78200
C298        C  0.09012465  0.51108094  0.57446893     0.82600
N299        N  0.12441004  0.51444501  0.56948958    -0.78100
C300        C  0.14311873  0.50842140  0.59013726     0.82700
N301        N  0.12719740  0.49925153  0.61622561    -0.79800
N302        N  0.36770217  0.37781794  0.55579034    -0.03500
C303        C  0.33635659  0.37782857  0.56435026    -0.01000
C304        C  0.30816730  0.34215666  0.57694479    -0.23800
C305        C  0.32254844  0.31932582  0.57604122    -0.24000
C306        C  0.35906380  0.34179870  0.56287333    -0.01100
H307        H  0.28024099  0.33376125  0.58593741     0.12700
H308        H  0.30817757  0.28972218  0.58445430     0.12800
C309        C  0.47177393  0.08657551  0.61914794     0.80100
N310        N  0.46980113  0.11731159  0.61182207    -0.78200
C311        C  0.47567162  0.13043482  0.58497343     0.82600
N312        N  0.48334807  0.11221664  0.56524240    -0.78100
C313        C  0.48555778  0.08150580  0.57193475     0.82700
N314        N  0.47986349  0.06866127  0.59907610    -0.79800
C315        C  0.37403390  0.89342967  0.62317531     0.80100
N316        N  0.40178008  0.91373423  0.60276027    -0.78200
C317        C  0.39542021  0.89815632  0.57661175     0.82600
N318        N  0.36123435  0.86247915  0.57086146    -0.78100
C319        C  0.33258098  0.84263594  0.59060913     0.82700
N320        N  0.33930092  0.85823832  0.61676144    -0.79800
N321        N  0.96414659  0.58241068  0.51716946    -0.03500
C322        C  0.93434313  0.58712523  0.52044522    -0.01000
C323        C  0.94917965  0.62682029  0.52007971    -0.23800
C324        C  0.98948373  0.64740276  0.51656651    -0.24000
C325        C  0.99792813  0.61958777  0.51479175    -0.01100
H326        H  0.93247053  0.63941900  0.52245745     0.12700
H327        H  0.01055253  0.67928613  0.51619547     0.12800
N328        N  0.97541449  0.60100152  0.98736028    -0.03500
C329        C  0.94777615  0.60914966  0.98762618    -0.01000
C330        C  0.96605977  0.64957388  0.98904284    -0.23800
C331        C  0.00620907  0.66701844  0.98989262    -0.24000
C332        C  0.01113619  0.63667208  0.98905368    -0.01100
H333        H  0.95163997  0.66469886  0.98957505     0.12700
H334        H  0.02936749  0.69847162  0.99062028     0.12800
C335        C  0.48477488  0.09133811  0.87384100     0.80100
N336        N  0.49338071  0.07518247  0.89507065    -0.78200
C337        C  0.49859725  0.08936198  0.92169414     0.82600
N338        N  0.49578876  0.12010989  0.92681906    -0.78100
C339        C  0.48741740  0.13651060  0.90579807     0.82700
N340        N  0.48180851  0.12171712  0.87953927    -0.79800
C341        C  0.37608055  0.90099388  0.87601490     0.80100
N342        N  0.40657256  0.92118349  0.89468380    -0.78200
C343        C  0.40381321  0.90523580  0.92036681     0.82600
N344        N  0.37053229  0.86917207  0.92727529    -0.78100
C345        C  0.33949369  0.84939873  0.90907345     0.82700
N346        N  0.34264979  0.86566605  0.88362937    -0.79800
C347        C  0.43411432  0.56367987  0.88502724     0.80100
N348        N  0.44579940  0.54637597  0.90295489    -0.78200
C349        C  0.45620876  0.55979105  0.92976600     0.82600
N350        N  0.45631479  0.59115577  0.93817206    -0.78100
C351        C  0.44479435  0.60859504  0.92052230     0.82700
N352        N  0.43327558  0.59429523  0.89416860    -0.79800
C353        C  0.57331521  0.49760271  0.88775159     0.80100
N354        N  0.55169702  0.50240448  0.90667738    -0.78200
C355        C  0.56193404  0.50801181  0.93439302     0.82600
N356        N  0.59395914  0.50878202  0.94311193    -0.78100
C357        C  0.61487632  0.50259791  0.92456002     0.82700
N358        N  0.60425268  0.49715538  0.89710557    -0.79800
N359        N  0.59420679  0.98113828  0.98214375    -0.03500
C360        C  0.60054860  0.95243095  0.98026188    -0.01000
C361        C  0.64066009  0.96859499  0.98174365    -0.23800
C362        C  0.65985577  0.00872845  0.98464625    -0.24000
C363        C  0.63076188  0.01565323  0.98507110    -0.01100
H364        H  0.65439356  0.95281657  0.98102449     0.12700
H365        H  0.69166130  0.03060416  0.98586741     0.12800
C366        C  0.89208423  0.38784110  0.87357953     0.80100
N367        N  0.91286541  0.41749353  0.89260812    -0.78200
C368        C  0.89878215  0.41300185  0.91909186     0.82600
N369        N  0.86423221  0.37857580  0.92669128    -0.78100
C370        C  0.84377999  0.34836977  0.90810720     0.82700
N371        N  0.85795096  0.35338636  0.88167187    -0.79800
C372        C  0.08111110  0.48326154  0.87195553     0.80100
N373        N  0.06560032  0.49157733  0.89358371    -0.78200
C374        C  0.07917928  0.49427132  0.92018689     0.82600
N375        N  0.10855031  0.48898443  0.92492519    -0.78100
C376        C  0.12440948  0.48108976  0.90337828     0.82700
N377        N  0.11023481  0.47807433  0.87715893    -0.79800
N378        N  0.37222866  0.37453788  0.94551901    -0.03500
C379        C  0.34720115  0.37839356  0.92966152    -0.01000
C380        C  0.33280236  0.35226226  0.90742680    -0.23800
C381        C  0.34990426  0.33196294  0.90945301    -0.24000
C382        C  0.37398818  0.34624693  0.93292398    -0.01100
H383        H  0.31214206  0.34845594  0.89144287     0.12700
H384        H  0.34598284  0.30985433  0.89501209     0.12800
C385        C  0.15690072  0.47580732  0.90782375    -0.03300
C386        C  0.17672849  0.47419608  0.88458499    -0.05900
C387        C  0.20597939  0.46740193  0.88803278    -0.21000
C388        C  0.21654828  0.46210300  0.91476111     0.24800
C389        C  0.19770675  0.46491085  0.93821408    -0.18500
C390        C  0.16812276  0.47166026  0.93474261    -0.08500
C391        C  0.24614102  0.45226926  0.91643376    -0.18800
C392        C  0.26302965  0.45004245  0.94001754    -0.23600
C393        C  0.29067234  0.43768909  0.93926077     0.26800
C394        C  0.29172385  0.41632489  0.96184081    -0.20300
C395        C  0.31327112  0.39970211  0.95985723    -0.10000
C396        C  0.33411615  0.40435898  0.93528626    -0.10500
C397        C  0.33553181  0.42817000  0.91363493    -0.03500
C398        C  0.31455067  0.44515456  0.91573094    -0.18600
H399        H  0.16945729  0.47784787  0.86351504     0.10500
H400        H  0.22016825  0.46585667  0.86954697     0.10600
H401        H  0.20527759  0.46148071  0.95914464     0.10300
H402        H  0.15370215  0.47317562  0.95304398     0.11400
H403        H  0.25359118  0.44531239  0.89663853     0.11500
H404        H  0.25493443  0.45489974  0.96032538     0.13400
H405        H  0.27408179  0.41060848  0.98036557     0.09900
H406        H  0.31138859  0.38097440  0.97664646     0.12000
H407        H  0.35155652  0.43221026  0.89453061     0.08600
H408        H  0.31615946  0.46308425  0.89847286     0.11300
C409        C  0.64022689  0.05603212  0.98500263    -0.03300
C410        C  0.66916464  0.08455732  0.00350206    -0.05900
C411        C  0.68613199  0.12476723  0.99913991    -0.21000
C412        C  0.67527387  0.13728661  0.97577560     0.24800
C413        C  0.64395751  0.10850205  0.95854022    -0.18500
C414        C  0.62666335  0.06815395  0.96311859    -0.08500
C415        C  0.70006363  0.18018875  0.96861398    -0.18800
C416        C  0.70788128  0.19316836  0.94189485    -0.23600
C417        C  0.74081246  0.23418494  0.93357027     0.26800
C418        C  0.75653756  0.24016512  0.90653827    -0.20300
C419        C  0.78949161  0.27724470  0.89824701    -0.10000
C420        C  0.80755278  0.30955656  0.91675542    -0.10500
C421        C  0.79102913  0.30400551  0.94355575    -0.03500
C422        C  0.75792097  0.26676838  0.95186366    -0.18600
H423        H  0.68021682  0.07583998  0.02044074     0.10500
H424        H  0.70983235  0.14626563  0.01291055     0.10600
H425        H  0.63395376  0.11709474  0.94085730     0.10300
H426        H  0.60459873  0.04664406  0.94847887     0.11400
H427        H  0.71713273  0.20073317  0.98546878     0.11500
H428        H  0.69309948  0.17169703  0.92512085     0.13400
H429        H  0.74393905  0.21572362  0.89194886     0.09900
H430        H  0.80120152  0.28031199  0.87741075     0.12000
H431        H  0.80383976  0.32834577  0.95822750     0.08600
H432        H  0.74599223  0.26375047  0.97256415     0.11300
C433        C  0.56970885  0.90938781  0.97930752    -0.03300
C434        C  0.56967481  0.88481056  0.99963620    -0.05900
C435        C  0.54448567  0.84373991  0.99689239    -0.21000
C436        C  0.51909454  0.82638927  0.97366159     0.24800
C437        C  0.51806755  0.85111903  0.95379304    -0.18500
C438        C  0.54344137  0.89233847  0.95654467    -0.08500
C439        C  0.49604143  0.78271358  0.97048447    -0.18800
C440        C  0.48423415  0.76413899  0.94554861    -0.23600
C441        C  0.46908284  0.72190605  0.94148651     0.26800
C442        C  0.45098778  0.70369285  0.91587271    -0.20300
C443        C  0.44139326  0.66611253  0.90950674    -0.10000
C444        C  0.44996019  0.64594379  0.92859974    -0.10500
C445        C  0.46633006  0.66333271  0.95476286    -0.03500
C446        C  0.47596580  0.70088512  0.96111521    -0.18600
H447        H  0.59001229  0.89747247  0.01723697     0.10500
H448        H  0.54616231  0.82551148  0.01235629     0.10600
H449        H  0.49829513  0.83894383  0.93593133     0.10300
H450        H  0.54360524  0.91090840  0.94037991     0.11400
H451        H  0.49190676  0.76596625  0.98926895     0.11500
H452        H  0.48823428  0.78095699  0.92678816     0.13400
H453        H  0.44540125  0.71913948  0.90033242     0.09900
H454        H  0.42855069  0.65352905  0.88920895     0.12000
H455        H  0.47327940  0.64866398  0.97000617     0.08600
H456        H  0.49061801  0.71378399  0.98086656     0.11300
C457        C  0.48335199  0.16955014  0.91112013    -0.03300
C458        C  0.47596095  0.18646719  0.88857600    -0.05900
C459        C  0.47111179  0.21676823  0.89291962    -0.21000
C460        C  0.47308792  0.23103414  0.91990970     0.24800
C461        C  0.48112662  0.21477927  0.94265559    -0.18500
C462        C  0.48625907  0.18432199  0.93826181    -0.08500
C463        C  0.46618924  0.26254687  0.92263457    -0.18800
C464        C  0.45437667  0.27096937  0.94615094    -0.23600
C465        C  0.44006468  0.29704883  0.94576125     0.26800
C466        C  0.41249125  0.29136491  0.96600020    -0.20300
C467        C  0.39303491  0.31010038  0.96325759    -0.10000
C468        C  0.40102585  0.33487970  0.94027958    -0.10500
C469        C  0.43078828  0.34315390  0.92136993    -0.03500
C470        C  0.45064905  0.32504934  0.92431853    -0.18600
H471        H  0.47367199  0.17619746  0.86736713     0.10500
H472        H  0.46511593  0.22873135  0.87497210     0.10600
H473        H  0.48373782  0.22558810  0.96370411     0.10300
H474        H  0.49225432  0.17222209  0.95609451     0.11400
H475        H  0.46692832  0.27654002  0.90316647     0.11500
H476        H  0.45044957  0.25483180  0.96528899     0.13400
H477        H  0.40417657  0.27052942  0.98298902     0.09900
H478        H  0.36992846  0.30319101  0.97797292     0.12000
H479        H  0.43746015  0.36239209  0.90357217     0.08600
H480        H  0.47320181  0.33212846  0.90910588     0.11300
C481        C  0.30162998  0.81154523  0.91709576    -0.03300
C482        C  0.26964879  0.79218131  0.89807084    -0.05900
C483        C  0.23298143  0.75821792  0.90599230    -0.21000
C484        C  0.22710576  0.74260468  0.93311969     0.24800
C485        C  0.25971480  0.76061824  0.95167844    -0.18500
C486        C  0.29644161  0.79487362  0.94383874    -0.08500
C487        C  0.18598495  0.70942842  0.94137565    -0.18800
C488        C  0.17360308  0.69964103  0.96813389    -0.23600
C489        C  0.13082303  0.67574176  0.97588933     0.26800
C490        C  0.12016427  0.68507395  0.00087018    -0.20300
C491        C  0.08048207  0.66982310  0.00626968    -0.10000
C492        C  0.05061930  0.64397846  0.98720003    -0.10500
C493        C  0.06064069  0.63148044  0.96359171    -0.03500
C494        C  0.10050080  0.64722658  0.95792324    -0.18600
H495        H  0.27253882  0.80375422  0.87714886     0.10500
H496        H  0.20867888  0.74486306  0.89107146     0.10600
H497        H  0.25713050  0.74872169  0.97229731     0.10300
H498        H  0.32055389  0.80859365  0.95889887     0.11400
H499        H  0.16394843  0.69626380  0.92474207     0.11500
H500        H  0.19476061  0.71464064  0.98506904     0.13400
H501        H  0.14283197  0.70652450  0.01524452     0.09900
H502        H  0.07329597  0.67988255  0.02458370     0.12000
H503        H  0.03796945  0.61167775  0.94858423     0.08600
H504        H  0.10753850  0.63830725  0.93894769     0.11300
C505        C  0.90403841  0.58048624  0.98816804    -0.03300
C506        C  0.88247873  0.58382198  0.00918241    -0.05900
C507        C  0.84163425  0.56533549  0.00630163    -0.21000
C508        C  0.82127009  0.54322021  0.98226525     0.24800
C509        C  0.84251350  0.53743777  0.96214168    -0.18500
C510        C  0.88358750  0.55616314  0.96504972    -0.08500
C511        C  0.77957692  0.53098572  0.97806475    -0.18800
C512        C  0.75690906  0.51175883  0.95538840    -0.23600
C513        C  0.71890341  0.50714942  0.94900670     0.26800
C514        C  0.70658189  0.50184998  0.92097722    -0.20300
C515        C  0.67279976  0.50002798  0.91330081    -0.10000
C516        C  0.64999316  0.50319003  0.93349476    -0.10500
C517        C  0.66146737  0.50717931  0.96178900    -0.03500
C518        C  0.69548099  0.50901493  0.96950361    -0.18600
H519        H  0.89773861  0.60278402  0.02708876     0.10500
H520        H  0.82631670  0.57021677  0.02227306     0.10600
H521        H  0.82847768  0.52051786  0.94334210     0.10300
H522        H  0.89977318  0.55393809  0.94825927     0.11400
H523        H  0.76853161  0.54157483  0.99347621     0.11500
H524        H  0.76790030  0.50199954  0.93934766     0.13400
H525        H  0.72377385  0.50008303  0.90473910     0.09900
H526        H  0.66494978  0.49668088  0.89132014     0.12000
H527        H  0.64431844  0.50909584  0.97796015     0.08600
H528        H  0.70312351  0.51179300  0.99146018     0.11300
C529        C  0.38192543  0.90831073  0.65248250    -0.03300
C530        C  0.42092130  0.93581187  0.66221563    -0.05900
C531        C  0.42821910  0.94652164  0.69057684    -0.21000
C532        C  0.39672933  0.93095011  0.70966215     0.24800
C533        C  0.35763061  0.90448997  0.69967113    -0.18500
C534        C  0.35039476  0.89326582  0.67151450    -0.08500
C535        C  0.40540859  0.93884944  0.74020229    -0.18800
C536        C  0.37907558  0.93617517  0.75843250    -0.23600
C537        C  0.38105720  0.93251551  0.78933048     0.26800
C538        C  0.34512061  0.91214103  0.80409956    -0.20300
C539        C  0.34399925  0.90338806  0.83245560    -0.10000
C540        C  0.37897202  0.91551646  0.84704715    -0.10500
C541        C  0.41545869  0.93816886  0.83283816    -0.03500
C542        C  0.41650162  0.94631747  0.80410929    -0.18600
H543        H  0.44593144  0.94784607  0.64816659     0.10500
H544        H  0.45861335  0.96634928  0.69776124     0.10600
H545        H  0.33252683  0.89070334  0.71373848     0.10300
H546        H  0.32000158  0.87204379  0.66477632     0.11400
H547        H  0.43287998  0.94401153  0.74784027     0.11500
H548        H  0.35224214  0.93196522  0.75025412     0.13400
H549        H  0.31740472  0.90133006  0.79335563     0.09900
H550        H  0.31545378  0.88620964  0.84285253     0.12000
H551        H  0.44289869  0.94798921  0.84358593     0.08600
H552        H  0.44487076  0.96281006  0.79355571     0.11300
C553        C  0.29363362  0.80563223  0.58305121    -0.03300
C554        C  0.26164517  0.78760255  0.60191705    -0.05900
C555        C  0.22438920  0.75420636  0.59398200    -0.21000
C556        C  0.21810420  0.73808408  0.56702606     0.24800
C557        C  0.25049791  0.75514207  0.54853515    -0.18500
C558        C  0.28768588  0.78861261  0.55640170    -0.08500
C559        C  0.17714368  0.70455361  0.55880938    -0.18800
C560        C  0.16409170  0.69681382  0.53205893    -0.23600
C561        C  0.12121772  0.67015680  0.52460391     0.26800
C562        C  0.09327328  0.63765659  0.54134886    -0.20300
C563        C  0.05245431  0.61811095  0.53638857    -0.10000
C564        C  0.03911776  0.63078901  0.51469562    -0.10500
C565        C  0.06702284  0.66084185  0.49656211    -0.03500
C566        C  0.10767800  0.67996577  0.50124864    -0.18600
H567        H  0.26509602  0.79975281  0.62263372     0.10500
H568        H  0.20007052  0.74156176  0.60873956     0.10600
H569        H  0.24737886  0.74285792  0.52796682     0.10300
H570        H  0.31171546  0.80134724  0.54141191     0.11400
H571        H  0.15585689  0.68886317  0.57559472     0.11500
H572        H  0.18435666  0.71489754  0.51533042     0.13400
H573        H  0.10278957  0.62843083  0.55895112     0.09900
H574        H  0.03140472  0.59509314  0.55070326     0.12000
H575        H  0.05734326  0.67116213  0.47976328     0.08600
H576        H  0.12855314  0.70446023  0.48777739     0.11300
C577        C  0.46351878  0.07256021  0.64874152    -0.03300
C578        C  0.43661808  0.07569873  0.66432616    -0.05900
C579        C  0.43056488  0.06606309  0.69276787    -0.21000
C580        C  0.45199120  0.05405333  0.70680987     0.24800
C581        C  0.47836684  0.04991106  0.69118482    -0.18500
C582        C  0.48365787  0.05859636  0.66229292    -0.08500
C583        C  0.44661689  0.04816706  0.73778618    -0.18800
C584        C  0.47411295  0.05228378  0.75588017    -0.23600
C585        C  0.47243676  0.05737338  0.78677529     0.26800
C586        C  0.49436382  0.05029464  0.80537403    -0.20300
C587        C  0.49702576  0.05941777  0.83401497    -0.10000
C588        C  0.47860251  0.07678877  0.84450445    -0.10500
C589        C  0.45600993  0.08301955  0.82602102    -0.03500
C590        C  0.45288432  0.07343983  0.79766858    -0.18600
H591        H  0.42039321  0.08606351  0.65452275     0.10500
H592        H  0.40997634  0.06944826  0.70410877     0.10600
H593        H  0.49505604  0.04025039  0.70114820     0.10300
H594        H  0.50457707  0.05587538  0.65082031     0.11400
H595        H  0.42010228  0.04415952  0.74620836     0.11500
H596        H  0.50024827  0.05511100  0.74789762     0.13400
H597        H  0.51014507  0.03841631  0.79760641     0.09900
H598        H  0.51485281  0.05447049  0.84766681     0.12000
H599        H  0.44137294  0.09630905  0.83336366     0.08600
H600        H  0.43675561  0.08072633  0.78422010     0.11300
C601        C  0.47121019  0.16255148  0.57690088    -0.03300
C602        C  0.46589119  0.16837748  0.54866842    -0.05900
C603        C  0.45819606  0.19613687  0.54116961    -0.21000
C604        C  0.45631033  0.21930871  0.56159185     0.24800
C605        C  0.46337391  0.21482902  0.58974956    -0.18500
C606        C  0.47059861  0.18665363  0.59730367    -0.08500
C607        C  0.44201758  0.24388094  0.55323875    -0.18800
C608        C  0.44935335  0.27532210  0.56782696    -0.23600
C609        C  0.42838464  0.29438988  0.56202708     0.26800
C610        C  0.44612210  0.33409935  0.56961045    -0.20300
C611        C  0.42466508  0.35086847  0.56786014    -0.10000
C612        C  0.38484176  0.32788581  0.55900491    -0.10500
C613        C  0.36759955  0.28868162  0.55056035    -0.03500
C614        C  0.38907868  0.27213986  0.55192587    -0.18600
H615        H  0.46618417  0.15043889  0.53239648     0.10500
H616        H  0.45267071  0.19879851  0.51935854     0.10600
H617        H  0.46139730  0.23157526  0.60615723     0.10300
H618        H  0.47482375  0.18314320  0.61921925     0.11400
H619        H  0.42381129  0.23494331  0.53446352     0.11500
H620        H  0.47052598  0.28690257  0.58501699     0.13400
H621        H  0.47618215  0.35175412  0.57776074     0.09900
H622        H  0.43835974  0.38088759  0.57510289     0.12000
H623        H  0.33678520  0.27023519  0.54398056     0.08600
H624        H  0.37393367  0.24119119  0.54663697     0.11300
C625        C  0.06782757  0.48055586  0.84263905    -0.03300
C626        C  0.05387961  0.50264634  0.83297160    -0.05900
C627        C  0.04616046  0.50312833  0.80435202    -0.21000
C628        C  0.05085791  0.48048023  0.78510590     0.24800
C629        C  0.06395832  0.45771941  0.79506743    -0.18500
C630        C  0.07236913  0.45785814  0.82338080    -0.08500
C631        C  0.04664646  0.48450931  0.75452533    -0.18800
C632        C  0.03924313  0.45653256  0.73596087    -0.23600
C633        C  0.04846447  0.46472217  0.70570593     0.26800
C634        C  0.06367315  0.44608164  0.69221801    -0.20300
C635        C  0.07777306  0.45629524  0.66485683    -0.10000
C636        C  0.07571791  0.48442445  0.64999250    -0.10500
C637        C  0.05821486  0.50141282  0.66275613    -0.03500
C638        C  0.04512173  0.49202590  0.69060076    -0.18600
H639        H  0.05061867  0.52083105  0.84728583     0.10500
H640        H  0.03702521  0.52164694  0.79715331     0.10600
H641        H  0.06973842  0.44121748  0.78095171     0.10300
H642        H  0.08334561  0.44073116  0.83012421     0.11400
H643        H  0.05361841  0.51271937  0.74709258     0.11500
H644        H  0.03166560  0.42818531  0.74360506     0.13400
H645        H  0.06637426  0.42481859  0.70334718     0.09900
H646        H  0.09066699  0.44240508  0.65535408     0.12000
H647        H  0.05611394  0.52302258  0.65159175     0.08600
H648        H  0.03279018  0.50630743  0.70029717     0.11300
C649        C  0.33117584  0.41016000  0.56130226    -0.03300
C650        C  0.35205450  0.44334936  0.57884796    -0.05900
C651        C  0.33910440  0.46794583  0.58211302    -0.21000
C652        C  0.30533116  0.45992826  0.56770107     0.24800
C653        C  0.28585884  0.42778099  0.54898392    -0.18500
C654        C  0.29862189  0.40315552  0.54593277    -0.08500
C655        C  0.28762694  0.48148692  0.57556716    -0.18800
C656        C  0.26257404  0.48373546  0.55878796    -0.23600
C657        C  0.23726872  0.49636809  0.56853937     0.26800
C658        C  0.22275083  0.51035049  0.54880605    -0.20300
C659        C  0.19337499  0.51582294  0.55609920    -0.10000
C660        C  0.17767703  0.50727227  0.58337871    -0.10500
C661        C  0.19371448  0.49519805  0.60353249    -0.03500
C662        C  0.22310466  0.48969652  0.59619443    -0.18600
H663        H  0.37651748  0.44855218  0.59153463     0.10500
H664        H  0.35432508  0.49213433  0.59694318     0.10600
H665        H  0.25896729  0.41964330  0.53823375     0.10300
H666        H  0.28144591  0.37701651  0.53293378     0.11400
H667        H  0.29400037  0.49422724  0.59640094     0.11500
H668        H  0.25895793  0.47438007  0.53716087     0.13400
H669        H  0.23315981  0.51569557  0.52737224     0.09900
H670        H  0.18202073  0.52543973  0.54003348     0.12000
H671        H  0.18241943  0.48837489  0.62473363     0.08600
H672        H  0.23297571  0.47810229  0.61183930     0.11300
C673        C  0.90756060  0.37602451  0.64940800    -0.03300
C674        C  0.89412714  0.34167950  0.66509669    -0.05900
C675        C  0.90243612  0.34399265  0.69363004    -0.21000
C676        C  0.92375359  0.38058037  0.70743969     0.24800
C677        C  0.93911833  0.41535975  0.69155282    -0.18500
C678        C  0.93132618  0.41307286  0.66267985    -0.08500
C679        C  0.92679908  0.38008030  0.73848259    -0.18800
C680        C  0.93166271  0.40846322  0.75553913    -0.23600
C681        C  0.92455805  0.40234990  0.78627791     0.26800
C682        C  0.94299081  0.43521717  0.80420339    -0.20300
C683        C  0.93396041  0.43056710  0.83284775    -0.10000
C684        C  0.90523634  0.39293595  0.84397940    -0.10500
C685        C  0.88715502  0.35999240  0.82604317    -0.03500
C686        C  0.89666235  0.36458327  0.79761987    -0.18600
H687        H  0.87619792  0.31273072  0.65542723     0.10500
H688        H  0.89053362  0.31676401  0.70522703     0.10600
H689        H  0.95650848  0.44418981  0.70132293     0.10300
H690        H  0.94230626  0.44008101  0.65106231     0.11400
H691        H  0.92075005  0.35308696  0.74776647     0.11500
H692        H  0.93872426  0.43611875  0.74684847     0.13400
H693        H  0.96378863  0.46466135  0.79586986     0.09900
H694        H  0.94835927  0.45660345  0.84601698     0.12000
H695        H  0.86484923  0.33055365  0.83381780     0.08600
H696        H  0.88063404  0.33860531  0.78443941     0.11300
C697        C  0.62962898  0.04640192  0.51272059    -0.03300
C698        C  0.65951808  0.07354647  0.49415944    -0.05900
C699        C  0.67754221  0.11417412  0.49722096    -0.21000
C700        C  0.66672183  0.12831521  0.51936744     0.24800
C701        C  0.63414491  0.10088198  0.53622521    -0.18500
C702        C  0.61588607  0.06021686  0.53297090    -0.08500
C703        C  0.69307096  0.17116753  0.52634220    -0.18800
C704        C  0.70070689  0.18388816  0.55309376    -0.23600
C705        C  0.73491558  0.22404418  0.56167966     0.26800
C706        C  0.75106912  0.22859670  0.58851284    -0.20300
C707        C  0.78527382  0.26474257  0.59687608    -0.10000
C708        C  0.80409155  0.29746172  0.57864116    -0.10500
C709        C  0.78699148  0.29342451  0.55213715    -0.03500
C710        C  0.75270225  0.25712431  0.54374915    -0.18600
H711        H  0.67075706  0.06347101  0.47853297     0.10500
H712        H  0.70219561  0.13466701  0.48372693     0.10600
H713        H  0.62417576  0.11080004  0.55289849     0.10300
H714        H  0.59314603  0.03979108  0.54768564     0.11400
H715        H  0.71140142  0.19143855  0.50966821     0.11500
H716        H  0.68476912  0.16247183  0.56979327     0.13400
H717        H  0.73787232  0.20368445  0.60281553     0.09900
H718        H  0.79738705  0.26672375  0.61748008     0.12000
H719        H  0.80039219  0.31814316  0.53767211     0.08600
H720        H  0.74039723  0.25509566  0.52325126     0.11300
C721        C  0.56565961  0.49551004  0.85690568    -0.03300
C722        C  0.54062594  0.50500135  0.84528008    -0.05900
C723        C  0.53625315  0.50556230  0.81604673    -0.21000
C724        C  0.55626351  0.49609575  0.79769128     0.24800
C725        C  0.58100535  0.48627332  0.80944092    -0.18500
C726        C  0.58548698  0.48588333  0.83848789    -0.08500
C727        C  0.55295355  0.49913909  0.76656043    -0.18800
C728        C  0.56027823  0.47951446  0.74795414    -0.23600
C729        C  0.56292620  0.48482936  0.71678245     0.26800
C730        C  0.58221441  0.47124720  0.70199504    -0.20300
C731        C  0.58676253  0.47556473  0.67299970    -0.10000
C732        C  0.57161709  0.49313226  0.65747089    -0.10500
C733        C  0.55151330  0.50625491  0.67203320    -0.03500
C734        C  0.54738421  0.50236985  0.70145196    -0.18600
H735        H  0.52511993  0.51289250  0.85871638     0.10500
H736        H  0.51735585  0.51369566  0.80772926     0.10600
H737        H  0.59821494  0.48016236  0.79636467     0.10300
H738        H  0.60522623  0.47862734  0.84648124     0.11400
H739        H  0.54523274  0.51871142  0.75903230     0.11500
H740        H  0.56658456  0.45908167  0.75600917     0.13400
H741        H  0.59442082  0.45752277  0.71301931     0.09900
H742        H  0.60217652  0.46480456  0.66271595     0.12000
H743        H  0.53946075  0.51993647  0.66077302     0.08600
H744        H  0.53179665  0.51274657  0.71194142     0.11300
C745        C  0.64491354  0.49547489  0.57531964    -0.03300
C746        C  0.64570712  0.48925672  0.54649024    -0.05900
C747        C  0.67682563  0.48925287  0.53494198    -0.21000
C748        C  0.70800755  0.49556948  0.55182283     0.24800
C749        C  0.70696733  0.50131840  0.58078201    -0.18500
C750        C  0.67560210  0.50094341  0.59238429    -0.08500
C751        C  0.74283101  0.50022383  0.53796847    -0.18800
C752        C  0.77118317  0.49948946  0.55164048    -0.23600
C753        C  0.81076046  0.51388867  0.53951026     0.26800
C754        C  0.83794513  0.51208824  0.55622974    -0.20300
C755        C  0.87803468  0.53288591  0.54863997    -0.10000
C756        C  0.89158364  0.55567558  0.52408711    -0.10500
C757        C  0.86405861  0.55494585  0.50622750    -0.03500
C758        C  0.82405635  0.53416739  0.51369574    -0.18600
H759        H  0.62246555  0.48479568  0.53273346     0.10500
H760        H  0.67691136  0.48505969  0.51258528     0.10600
H761        H  0.73090370  0.50763390  0.59450292     0.10300
H762        H  0.67610508  0.50625640  0.61461444     0.11400
H763        H  0.74553434  0.50602455  0.51569302     0.11500
H764        H  0.76660975  0.49058817  0.57346968     0.13400
H765        H  0.82874232  0.49675523  0.57617392     0.09900
H766        H  0.89893759  0.53370828  0.56300845     0.12000
H767        H  0.87406523  0.57272882  0.48731681     0.08600
H768        H  0.80479084  0.53673109  0.49992846     0.11300
C769        C  0.43966337  0.55771585  0.65804503    -0.03300
C770        C  0.44760058  0.53104545  0.66864493    -0.05900
C771        C  0.44756737  0.52511581  0.69762673    -0.21000
C772        C  0.43904481  0.54523945  0.71649410     0.24800
C773        C  0.43152582  0.57211544  0.70581912    -0.18500
C774        C  0.43156956  0.57803155  0.67706917    -0.08500
C775        C  0.43980334  0.53944643  0.74724527    -0.18800
C776        C  0.41666957  0.54311692  0.76491860    -0.23600
C777        C  0.41922818  0.54383435  0.79605082     0.26800
C778        C  0.39996356  0.55762571  0.81059970    -0.20300
C779        C  0.40358384  0.56232481  0.83955525    -0.10000
C780        C  0.42631464  0.55299374  0.85495070    -0.10500
C781        C  0.44405823  0.53719752  0.84074899    -0.03500
C782        C  0.44074407  0.53282180  0.81148380    -0.18600
H783        H  0.45424708  0.51509171  0.65461863     0.10500
H784        H  0.45403993  0.50468882  0.70532205     0.10600
H785        H  0.42652656  0.58949307  0.71964724     0.10300
H786        H  0.42583551  0.59917639  0.66983433     0.11400
H787        H  0.46013928  0.53286606  0.75512970     0.11500
H788        H  0.39548057  0.54797056  0.75600610     0.13400
H789        H  0.38295995  0.56608089  0.79940332     0.09900
H790        H  0.38922916  0.57422102  0.84985798     0.12000
H791        H  0.46179759  0.52976965  0.85207249     0.08600
H792        H  0.45545127  0.52137541  0.80119097     0.11300
C793        C  0.55895983  0.90317655  0.53577692    -0.03300
C794        C  0.53343367  0.89410187  0.55842978    -0.05900
C795        C  0.50844637  0.85510745  0.56823996    -0.21000
C796        C  0.50860376  0.82463232  0.55555187     0.24800
C797        C  0.53439513  0.83393967  0.53293199    -0.18500
C798        C  0.55929619  0.87280868  0.52317697    -0.08500
C799        C  0.48501355  0.78426182  0.56793453    -0.18800
C800        C  0.47071139  0.75165838  0.55223864    -0.23600
C801        C  0.45561233  0.71162527  0.56345577     0.26800
C802        C  0.44822671  0.68255440  0.54418573    -0.20300
C803        C  0.44124895  0.64694119  0.55328843    -0.10000
C804        C  0.44120197  0.63933547  0.58198030    -0.10500
C805        C  0.44513396  0.66683604  0.60141679    -0.03500
C806        C  0.45237588  0.70272621  0.59228676    -0.18600
H807        H  0.53394921  0.91740964  0.56918555     0.10500
H808        H  0.48958223  0.84884405  0.58612241     0.10600
H809        H  0.53685197  0.81162450  0.52365426     0.10300
H810        H  0.57975119  0.87942914  0.50629690     0.11400
H811        H  0.48119413  0.78211678  0.59043763     0.11500
H812        H  0.47330346  0.75514810  0.52961943     0.13400
H813        H  0.44998316  0.68823543  0.52187933     0.09900
H814        H  0.43754477  0.62604745  0.53774744     0.12000
H815        H  0.44475926  0.66162585  0.62369491     0.08600
H816        H  0.45693690  0.72369182  0.60798745     0.11300
C817        C  0.08649017  0.43477848  0.02197720    -0.03300
C818        C  0.10481148  0.42464644  0.00271027    -0.05900
C819        C  0.14425377  0.43776123  0.00636480    -0.21000
C820        C  0.16668519  0.46180167  0.02912990     0.24800
C821        C  0.14938950  0.47482413  0.04718422    -0.18500
C822        C  0.10942881  0.46109889  0.04372630    -0.08500
C823        C  0.20657558  0.46985007  0.03405320    -0.18800
C824        C  0.22319610  0.47617343  0.05967013    -0.23600
C825        C  0.25894634  0.47633703  0.06601869     0.26800
C826        C  0.26719044  0.47365382  0.09416828    -0.20300
C827        C  0.29909987  0.47197691  0.10151168    -0.10000
C828        C  0.32391685  0.47298476  0.08087608    -0.10500
C829        C  0.31611041  0.47612902  0.05265363    -0.03500
C830        C  0.28416864  0.47799385  0.04527571    -0.18600
H831        H  0.08750900  0.40371019  0.98612314     0.10500
H832        H  0.15628058  0.42661642  0.99244137     0.10600
H833        H  0.16596523  0.49413687  0.06462748     0.10300
H834        H  0.09568881  0.46860735  0.05921716     0.11400
H835        H  0.22001971  0.46553025  0.01634831     0.11500
H836        H  0.20795748  0.47783480  0.07747446     0.13400
H837        H  0.24849971  0.47234268  0.11065977     0.09900
H838        H  0.30409048  0.46960514  0.12347923     0.12000
H839        H  0.33484891  0.47742707  0.03622199     0.08600
H840        H  0.27975047  0.48091089  0.02334676     0.11300
C841        C  0.44430591  0.09492310  0.02846645    -0.03300
C842        C  0.46805157  0.10415943  0.05235054    -0.05900
C843        C  0.49413206  0.14348917  0.06091346    -0.21000
C844        C  0.49688944  0.17412479  0.04570281     0.24800
C845        C  0.47371870  0.16475083  0.02131570    -0.18500
C846        C  0.44761150  0.12545992  0.01285109    -0.08500
C847        C  0.51925946  0.21441004  0.05789430    -0.18800
C848        C  0.53340755  0.24714145  0.04227692    -0.23600
C849        C  0.54413421  0.28541237  0.05394584     0.26800
C850        C  0.54360773  0.31181003  0.03570746    -0.20300
C851        C  0.54592712  0.34455893  0.04612113    -0.10000
C852        C  0.54905224  0.35178328  0.07507784    -0.10500
C853        C  0.55317244  0.32742206  0.09314224    -0.03500
C854        C  0.55079851  0.29454634  0.08270499    -0.18600
H855        H  0.46495572  0.08080001  0.06512833     0.10500
H856        H  0.51105389  0.14988536  0.08004251     0.10600
H857        H  0.47374153  0.18727802  0.00967640     0.10300
H858        H  0.42882810  0.11872286  0.99470652     0.11400
H859        H  0.52067652  0.21613553  0.08053775     0.11500
H860        H  0.53250531  0.24458887  0.01961868     0.13400
H861        H  0.53905488  0.30586124  0.01343539     0.09900
H862        H  0.54347352  0.36320361  0.03153123     0.12000
H863        H  0.55628532  0.33257331  0.11551106     0.08600
H864        H  0.55299081  0.27594895  0.09742593     0.11300
C865        C  0.36760908  0.94997713  0.01209595    -0.03300
C866        C  0.38205567  0.93650739  0.03230369    -0.05900
C867        C  0.36443056  0.89596095  0.03555809    -0.21000
C868        C  0.33166560  0.86834165  0.01882893     0.24800
C869        C  0.31975963  0.88226291  0.99701581    -0.18500
C870        C  0.33728766  0.92272704  0.99386683    -0.08500
C871        C  0.30623812  0.82531165  0.02526471    -0.18800
C872        C  0.30201798  0.81103473  0.05143082    -0.23600
C873        C  0.26763838  0.77105023  0.06000436     0.26800
C874        C  0.25458062  0.76544661  0.08779931    -0.20300
C875        C  0.21912169  0.73034598  0.09597866    -0.10000
C876        C  0.19596433  0.69990253  0.07651602    -0.10500
C877        C  0.21034301  0.70449040  0.04909621    -0.03500
C878        C  0.24596923  0.73959527  0.04098943    -0.18600
H879        H  0.40535058  0.95713433  0.04666341     0.10500
H880        H  0.37545260  0.88642228  0.05189937     0.10600
H881        H  0.29495379  0.86167354  0.98361358     0.10300
H882        H  0.32575717  0.93263372  0.97815345     0.11400
H883        H  0.28555369  0.80601058  0.00907284     0.11500
H884        H  0.32043518  0.83110999  0.06815870     0.13400
H885        H  0.27095667  0.78899549  0.10299218     0.09900
H886        H  0.20931329  0.72762978  0.11738603     0.12000
H887        H  0.19368736  0.68133547  0.03369082     0.08600
H888        H  0.25613299  0.74211470  0.01981610     0.11300
C889        C  0.62640520  0.55670207  0.07725424    -0.03300
C890        C  0.62537266  0.53740769  0.10183504    -0.05900
C891        C  0.63965101  0.51386129  0.10204134    -0.21000
C892        C  0.65624405  0.50984657  0.07784477     0.24800
C893        C  0.65336047  0.52571367  0.05246204    -0.18500
C894        C  0.63842725  0.54892892  0.05220558    -0.08500
C895        C  0.67993404  0.49304767  0.08117046    -0.18800
C896        C  0.71002531  0.50180448  0.06409633    -0.23600
C897        C  0.74064523  0.49465423  0.07174448     0.26800
C898        C  0.75271560  0.49631917  0.09967073    -0.20300
C899        C  0.78576600  0.49576388  0.10584898    -0.10000
C900        C  0.80765889  0.49359678  0.08430417    -0.10500
C901        C  0.79440736  0.49017724  0.05652392    -0.03500
C902        C  0.76150415  0.49090146  0.05038366    -0.18600
H903        H  0.61629038  0.54301358  0.12141443     0.10500
H904        H  0.64072948  0.50146290  0.12177894     0.10600
H905        H  0.66439633  0.52205386  0.03311090     0.10300
H906        H  0.63960189  0.56359151  0.03298689     0.11400
H907        H  0.67565074  0.47687102  0.10037805     0.11500
H908        H  0.71453173  0.51740734  0.04459557     0.13400
H909        H  0.73799672  0.50005860  0.11674049     0.09900
H910        H  0.79482796  0.49819714  0.12749821     0.12000
H911        H  0.81016456  0.48813035  0.03933048     0.08600
H912        H  0.75271339  0.48926114  0.02877496     0.11300
C913        C  0.94136260  0.37736926  0.01876630    -0.03300
C914        C  0.92898983  0.38975291  0.04102095    -0.05900
C915        C  0.88864014  0.37354020  0.04447063    -0.21000
C916        C  0.86040228  0.34462398  0.02569646     0.24800
C917        C  0.87360202  0.33628009  0.00157122    -0.18500
C918        C  0.91381124  0.35209887  0.99833990    -0.08500
C919        C  0.81762314  0.31789034  0.03277439    -0.18800
C920        C  0.80576061  0.30425790  0.05912841    -0.23600
C921        C  0.76656766  0.26734426  0.06663488     0.26800
C922        C  0.76114851  0.25310353  0.09423634    -0.20300
C923        C  0.72728199  0.21603399  0.10169939    -0.10000
C924        C  0.69783322  0.19231566  0.08170789    -0.10500
C925        C  0.70240176  0.20721426  0.05436607    -0.03500
C926        C  0.73621879  0.24424856  0.04690722    -0.18600
H927        H  0.95000483  0.40928672  0.05695134     0.10500
H928        H  0.87936643  0.38153590  0.06278360     0.10600
H929        H  0.85245633  0.31443350  0.98667003     0.10300
H930        H  0.92299052  0.34222478  0.98107629     0.11400
H931        H  0.79715067  0.30393809  0.01537553     0.11500
H932        H  0.82770403  0.31773432  0.07582802     0.13400
H933        H  0.78384880  0.27019186  0.10996107     0.09900
H934        H  0.72453459  0.20572150  0.12301723     0.12000
H935        H  0.68018526  0.18990196  0.03841712     0.08600
H936        H  0.73838613  0.25386123  0.02554189     0.11300
C937        C  0.51914600  0.82986330  0.08206846    -0.03300
C938        C  0.49395743  0.80075491  0.06225296    -0.05900
C939        C  0.49815012  0.77024669  0.05570637    -0.21000
C940        C  0.52856329  0.76918178  0.06801687     0.24800
C941        C  0.55360819  0.79830804  0.08789130    -0.18500
C942        C  0.54873424  0.82806613  0.09498091    -0.08500
C943        C  0.53313806  0.73687277  0.06095571    -0.18800
C944        C  0.56930927  0.74371350  0.05980948    -0.23600
C945        C  0.57746771  0.71305305  0.05708716     0.26800
C946        C  0.61680167  0.72631763  0.05178319    -0.20300
C947        C  0.62839557  0.70065722  0.05403418    -0.10000
C948        C  0.60093846  0.66082489  0.06144526    -0.10500
C949        C  0.56092690  0.64657313  0.06512078    -0.03500
C950        C  0.54920657  0.67250785  0.06300759    -0.18600
H951        H  0.47076314  0.80137054  0.05205595     0.10500
H952        H  0.47811969  0.74789285  0.04065473     0.10600
H953        H  0.57660733  0.79772094  0.09841621     0.10300
H954        H  0.56855230  0.85008463  0.11029001     0.11400
H955        H  0.50662650  0.70758777  0.05659917     0.11500
H956        H  0.59516530  0.77416148  0.06175617     0.13400
H957        H  0.63926654  0.75727876  0.04729109     0.09900
H958        H  0.65950442  0.71250219  0.05150458     0.12000
H959        H  0.53941436  0.61621476  0.07161111     0.08600
H960        H  0.51875072  0.66122478  0.06772497     0.11300
C961        C  0.54444914  0.42984335  0.35325932    -0.03300
C962        C  0.52893387  0.45009452  0.34240332    -0.05900
C963        C  0.52708816  0.45442100  0.31334778    -0.21000
C964        C  0.54127908  0.43921351  0.29454726     0.24800
C965        C  0.55708134  0.41931491  0.30553662    -0.18500
C966        C  0.55879551  0.41489663  0.33439506    -0.08500
C967        C  0.53691688  0.44181777  0.26366408    -0.18800
C968        C  0.56109184  0.44107869  0.24508589    -0.23600
C969        C  0.55528206  0.43672605  0.21409358     0.26800
C970        C  0.57770761  0.42689527  0.19912852    -0.20300
C971        C  0.57272915  0.42031252  0.17032676    -0.10000
C972        C  0.54547351  0.42388743  0.15540056    -0.10500
C973        C  0.52359095  0.43478484  0.17007487    -0.03500
C974        C  0.52822603  0.44091985  0.19920441    -0.18600
H975        H  0.51721899  0.46165561  0.35628458     0.10500
H976        H  0.51427570  0.46940501  0.30552986     0.10600
H977        H  0.56689370  0.40569944  0.29195115     0.10300
H978        H  0.57067741  0.39890152  0.34188876     0.11400
H979        H  0.51266673  0.44306995  0.25641169     0.11500
H980        H  0.58616149  0.44174586  0.25314330     0.13400
H981        H  0.59882173  0.42351014  0.20988378     0.09900
H982        H  0.59032795  0.41229797  0.15973208     0.12000
H983        H  0.50229833  0.43773069  0.15916141     0.08600
H984        H  0.51062341  0.44885470  0.20979013     0.11300
C985        C  0.41616330  0.49919277  0.35377508    -0.03300
C986        C  0.39771539  0.51285792  0.33759733    -0.05900
C987        C  0.39924574  0.51318585  0.30839797    -0.21000
C988        C  0.41914631  0.49980769  0.29413932     0.24800
C989        C  0.43912575  0.48751123  0.31017976    -0.18500
C990        C  0.43777460  0.48740019  0.33971414    -0.08500
C991        C  0.41604853  0.49794031  0.26280699    -0.18800
C992        C  0.43139349  0.48453090  0.24512492    -0.23600
C993        C  0.42312562  0.48089899  0.21423165     0.26800
C994        C  0.45094788  0.48478181  0.19494894    -0.20300
C995        C  0.44366744  0.48235941  0.16588116    -0.10000
C996        C  0.40819524  0.47570833  0.15550748    -0.10500
C997        C  0.37991845  0.47036800  0.17497438    -0.03500
C998        C  0.38710839  0.47267213  0.20375817    -0.18600
H999        H  0.38118645  0.52264844  0.34748730     0.10500
H1000       H  0.38376911  0.52311398  0.29684674     0.10600
H1001       H  0.45503896  0.47718005  0.30017727     0.10300
H1002       H  0.45248333  0.47681334  0.35146493     0.11400
H1003       H  0.39913750  0.50804098  0.25368576     0.11500
H1004       H  0.45063259  0.47656010  0.25303953     0.13400
H1005       H  0.47866895  0.49042318  0.20236659     0.09900
H1006       H  0.46597807  0.48622241  0.15158639     0.12000
H1007       H  0.35181653  0.46422478  0.16801722     0.08600
H1008       H  0.36399948  0.46752162  0.21776538     0.11300
C1009       C  0.43282244  0.08175038  0.45546570    -0.03300
C1010       C  0.43517200  0.09402772  0.42770184    -0.05900
C1011       C  0.46197423  0.13377738  0.42033129    -0.21000
C1012       C  0.48624505  0.16207040  0.44072576     0.24800
C1013       C  0.48546621  0.14922985  0.46828941    -0.18500
C1014       C  0.45868267  0.10936277  0.47560580    -0.08500
C1015       C  0.50874839  0.20467746  0.43299422    -0.18800
C1016       C  0.51568431  0.23243657  0.45154309    -0.23600
C1017       C  0.52673091  0.27233976  0.44346444     0.26800
C1018       C  0.51524951  0.29072307  0.46143477    -0.20300
C1019       C  0.52107324  0.32633327  0.45397998    -0.10000
C1020       C  0.53870467  0.34472841  0.42827834    -0.10500
C1021       C  0.55203891  0.32737992  0.41073493    -0.03500
C1022       C  0.54619086  0.29148527  0.41827580    -0.18600
H1023       H  0.41531531  0.07299489  0.41191216     0.10500
H1024       H  0.46214437  0.14276408  0.39895521     0.10600
H1025       H  0.50464361  0.16994323  0.48440300     0.10300
H1026       H  0.45697875  0.10032227  0.49716882     0.11400
H1027       H  0.51387682  0.21209249  0.41088722     0.11500
H1028       H  0.50721771  0.22390506  0.47323365     0.13400
H1029       H  0.50031270  0.27672968  0.48097762     0.09900
H1030       H  0.51046554  0.33871921  0.46810558     0.12000
H1031       H  0.56631975  0.34114688  0.39100266     0.08600
H1032       H  0.55650096  0.27872439  0.40427091     0.11300
C1033       C  0.09101402  0.62691855  0.14677544    -0.03300
C1034       C  0.10513843  0.66148397  0.16217867    -0.05900
C1035       C  0.09589345  0.65933539  0.19046542    -0.21000
C1036       C  0.07312616  0.62269142  0.20427773     0.24800
C1037       C  0.05780607  0.58781297  0.18872043    -0.18500
C1038       C  0.06643977  0.58995424  0.16008531    -0.08500
C1039       C  0.06750262  0.62297287  0.23497563    -0.18800
C1040       C  0.06307931  0.59536856  0.25288901    -0.23600
C1041       C  0.06677701  0.60102914  0.28388451     0.26800
C1042       C  0.05096529  0.56795251  0.30157127    -0.20300
C1043       C  0.05731745  0.57265673  0.33061236    -0.10000
C1044       C  0.08067494  0.61072276  0.34246138    -0.10500
C1045       C  0.09586425  0.64373255  0.32483422    -0.03500
C1046       C  0.08903966  0.63903046  0.29598914    -0.18600
H1047       H  0.12386253  0.69034874  0.15239932     0.10500
H1048       H  0.10782346  0.68661886  0.20187094     0.10600
H1049       H  0.03938955  0.55901498  0.19855665     0.10300
H1050       H  0.05516671  0.56285439  0.14863320     0.11400
H1051       H  0.07088890  0.64914924  0.24326981     0.11500
H1052       H  0.05897982  0.56875998  0.24475214     0.13400
H1053       H  0.03443781  0.53843906  0.29279213     0.09900
H1054       H  0.04541334  0.54659794  0.34359691     0.12000
H1055       H  0.11397080  0.67345189  0.33327730     0.08600
H1056       H  0.10303824  0.66549428  0.28326929     0.11300
C1057       C  0.17639743  0.69292200  0.41723832    -0.03300
C1058       C  0.19870206  0.72511374  0.39888907    -0.05900
C1059       C  0.23328262  0.76028247  0.40820673    -0.21000
C1060       C  0.24624572  0.76418019  0.43604396     0.24800
C1061       C  0.22449147  0.73165152  0.45424524    -0.18500
C1062       C  0.18985502  0.69655069  0.44498302    -0.08500
C1063       C  0.28155465  0.80316315  0.44527493    -0.18800
C1064       C  0.28871981  0.81556864  0.47210077    -0.23600
C1065       C  0.31662698  0.85813012  0.47909457     0.26800
C1066       C  0.30584624  0.87386696  0.50008775    -0.20300
C1067       C  0.32502608  0.91478322  0.50208914    -0.10000
C1068       C  0.35597780  0.94041478  0.48367528    -0.10500
C1069       C  0.36968463  0.92493196  0.46485507    -0.03500
C1070       C  0.35036666  0.88404754  0.46269746    -0.18600
H1071       H  0.18927449  0.72334141  0.37740752     0.10500
H1072       H  0.24953235  0.78488153  0.39372087     0.10600
H1073       H  0.23403787  0.73297276  0.47557660     0.10300
H1074       H  0.17360845  0.67225912  0.45969062     0.11400
H1075       H  0.29930783  0.82431675  0.42881942     0.11500
H1076       H  0.26903770  0.79596561  0.48856430     0.13400
H1077       H  0.28026644  0.85446103  0.51320859     0.09900
H1078       H  0.31385339  0.92625253  0.51658159     0.12000
H1079       H  0.39319260  0.94422944  0.45022067     0.08600
H1080       H  0.36024123  0.87278104  0.44696447     0.11300
C1081       C  0.90750414  0.50763164  0.34313903    -0.03300
C1082       C  0.93382762  0.49793333  0.33521077    -0.05900
C1083       C  0.94447704  0.50006621  0.30697220    -0.21000
C1084       C  0.93024911  0.51335446  0.28634501     0.24800
C1085       C  0.90417849  0.52322035  0.29441364    -0.18500
C1086       C  0.89293034  0.52031507  0.32231512    -0.08500
C1087       C  0.93947295  0.51373867  0.25612867    -0.18800
C1088       C  0.94306024  0.54129493  0.23857132    -0.23600
C1089       C  0.93652677  0.53612195  0.20776665     0.26800
C1090       C  0.91914321  0.55331142  0.19496240    -0.20300
C1091       C  0.90683804  0.54533985  0.16707192    -0.10000
C1092       C  0.91276063  0.52095255  0.15085691    -0.10500
C1093       C  0.93271403  0.50581857  0.16295456    -0.03500
C1094       C  0.94409740  0.51291666  0.19135858    -0.18600
H1095       H  0.94528019  0.48764828  0.35067040     0.10500
H1096       H  0.96365465  0.49118252  0.30122689     0.10600
H1097       H  0.89129619  0.53201485  0.27897892     0.10300
H1098       H  0.87240866  0.52775904  0.32750106     0.11400
H1099       H  0.93896114  0.48894248  0.24805460     0.11500
H1100       H  0.94434302  0.56607604  0.24766816     0.13400
H1101       H  0.91320028  0.57151422  0.20700385     0.09900
H1102       H  0.89206212  0.55786436  0.15825124     0.12000
H1103       H  0.93789560  0.48713737  0.15082473     0.08600
H1104       H  0.95817175  0.49986366  0.20046064     0.11300
C1105       C  0.65456851  0.57947458  0.45526647    -0.03300
C1106       C  0.68240097  0.58553660  0.47540479    -0.05900
C1107       C  0.69655343  0.56188600  0.47562766    -0.21000
C1108       C  0.68395193  0.53256358  0.45519662     0.24800
C1109       C  0.65320739  0.52409018  0.43667993    -0.18500
C1110       C  0.63868933  0.54753672  0.43671673    -0.08500
C1111       C  0.70678421  0.51508057  0.45203965    -0.18800
C1112       C  0.71227513  0.50394530  0.42701718    -0.23600
C1113       C  0.74400184  0.49786313  0.42163860     0.26800
C1114       C  0.75849700  0.50322325  0.39422868    -0.20300
C1115       C  0.79092547  0.50185836  0.38841838    -0.10000
C1116       C  0.80956674  0.49484345  0.40991963    -0.10500
C1117       C  0.79397003  0.48773730  0.43720499    -0.03500
C1118       C  0.76145293  0.48903326  0.44299910    -0.18600
H1119       H  0.69507683  0.61022511  0.48977293     0.10500
H1120       H  0.71971246  0.56861540  0.49040208     0.10600
H1121       H  0.64165721  0.50069779  0.42133967     0.10300
H1122       H  0.61722675  0.54255925  0.42097635     0.11400
H1123       H  0.72471250  0.51779730  0.46978336     0.11500
H1124       H  0.69681318  0.50462503  0.40880042     0.13400
H1125       H  0.74548275  0.50979286  0.37732394     0.09900
H1126       H  0.80187429  0.50714843  0.36714739     0.12000
H1127       H  0.80716452  0.48162838  0.45424782     0.08600
H1128       H  0.75037196  0.48333848  0.46421246     0.11300
C1129       C  0.61237753  0.07969911  0.34558149    -0.03300
C1130       C  0.57410795  0.05425642  0.33410824    -0.05900
C1131       C  0.56894402  0.04615704  0.30528249    -0.21000
C1132       C  0.60181377  0.06253426  0.28730926     0.24800
C1133       C  0.64015725  0.08693096  0.29899982    -0.18500
C1134       C  0.64529669  0.09539162  0.32769201    -0.08500
C1135       C  0.59505960  0.05710304  0.25636266    -0.18800
C1136       C  0.62239371  0.06180551  0.23802345    -0.23600
C1137       C  0.62009682  0.06455686  0.20686112     0.26800
C1138       C  0.65451804  0.07802832  0.19116828    -0.20300
C1139       C  0.65646741  0.08725609  0.16272068    -0.10000
C1140       C  0.62365084  0.08223271  0.14902978    -0.10500
C1141       C  0.58812588  0.06582794  0.16396150    -0.03500
C1142       C  0.58635283  0.05728727  0.19264006    -0.18600
H1143       H  0.54809139  0.04187400  0.34718695     0.10500
H1144       H  0.53907343  0.02766564  0.29687548     0.10600
H1145       H  0.66635262  0.10116645  0.28597578     0.10300
H1146       H  0.67523154  0.11513052  0.33576532     0.11400
H1147       H  0.56708513  0.05062225  0.24874334     0.11500
H1148       H  0.64946345  0.06662576  0.24625700     0.13400
H1149       H  0.68080649  0.08336989  0.20126708     0.09900
H1150       H  0.68405577  0.09941501  0.15155718     0.12000
H1151       H  0.56236458  0.06161278  0.15381340     0.08600
H1152       H  0.55882290  0.04604418  0.20346864     0.11300
C1153       C  0.52950424  0.91767228  0.34805549    -0.03300
C1154       C  0.55925697  0.91736968  0.33408145    -0.05900
C1155       C  0.56748377  0.92802507  0.30580475    -0.21000
C1156       C  0.54559939  0.93836977  0.29029843     0.24800
C1157       C  0.51681536  0.94032246  0.30454947    -0.18500
C1158       C  0.50917621  0.93044837  0.33321248    -0.08500
C1159       C  0.55277920  0.94438146  0.25929953    -0.18800
C1160       C  0.52793669  0.94367941  0.24019906    -0.23600
C1161       C  0.53121338  0.94005814  0.20918384     0.26800
C1162       C  0.51103121  0.94912254  0.19036676    -0.20300
C1163       C  0.50884084  0.94069473  0.16159497    -0.10000
C1164       C  0.52621064  0.92227574  0.15101913    -0.10500
C1165       C  0.54767348  0.91469360  0.16964759    -0.03500
C1166       C  0.55021890  0.92344876  0.19819928    -0.18600
H1167       H  0.57579530  0.90812916  0.34496065     0.10500
H1168       H  0.59009578  0.92656235  0.29569560     0.10600
H1169       H  0.49973757  0.94886255  0.29370559     0.10300
H1170       H  0.48614466  0.93108477  0.34343212     0.11400
H1171       H  0.57869665  0.94642529  0.25175756     0.11500
H1172       H  0.50265884  0.94311645  0.24729187     0.13400
H1173       H  0.49594071  0.96176179  0.19808339     0.09900
H1174       H  0.49206619  0.94696601  0.14789188     0.12000
H1175       H  0.56170639  0.90081240  0.16227778     0.08600
H1176       H  0.56535050  0.91501427  0.21166987     0.11300
C1177       C  0.59860539  0.65892855  0.44952693    -0.03300
C1178       C  0.56235498  0.63788908  0.43500518    -0.05900
C1179       C  0.54073201  0.65417827  0.43145755    -0.21000
C1180       C  0.55459955  0.69137254  0.44281508     0.24800
C1181       C  0.58988680  0.71128042  0.45876119    -0.18500
C1182       C  0.61179941  0.69531643  0.46182973    -0.08500
C1183       C  0.53485119  0.71089038  0.43452947    -0.18800
C1184       C  0.53862107  0.74072988  0.44904805    -0.23600
C1185       C  0.52570978  0.76539556  0.43812185     0.26800
C1186       C  0.51678087  0.78475168  0.45725613    -0.20300
C1187       C  0.50972171  0.81233109  0.44809325    -0.10000
C1188       C  0.51200506  0.82174817  0.41945234    -0.10500
C1189       C  0.51973049  0.80143062  0.40012271    -0.03500
C1190       C  0.52644195  0.77345942  0.40934701    -0.18600
H1191       H  0.55208022  0.61009868  0.42491257     0.10500
H1192       H  0.51391460  0.63841656  0.41886745     0.10600
H1193       H  0.60216646  0.74036233  0.46732393     0.10300
H1194       H  0.63997991  0.71217336  0.47283064     0.11400
H1195       H  0.51773233  0.70116568  0.41521874     0.11500
H1196       H  0.55232530  0.74805725  0.46965351     0.13400
H1197       H  0.51602576  0.77901971  0.47945673     0.09900
H1198       H  0.50376463  0.82721546  0.46367639     0.12000
H1199       H  0.52154766  0.80782241  0.37794730     0.08600
H1200       H  0.53404566  0.75965947  0.39402912     0.11300
C1201       C  0.33654216  0.48695497  0.43538001    -0.03300
C1202       C  0.32689114  0.47753690  0.46382733    -0.05900
C1203       C  0.29403422  0.47429015  0.47518247    -0.21000
C1204       C  0.27002493  0.48070037  0.45864644     0.24800
C1205       C  0.28004326  0.49109669  0.43028625    -0.18500
C1206       C  0.31302388  0.49420338  0.41878569    -0.08500
C1207       C  0.23273571  0.47192539  0.47113418    -0.18800
C1208       C  0.21221602  0.48580698  0.46119316    -0.23600
C1209       C  0.17148056  0.47095892  0.47099360     0.26800
C1210       C  0.14679558  0.47519016  0.45322236    -0.20300
C1211       C  0.10632126  0.45569967  0.45918371    -0.10000
C1212       C  0.09007084  0.43225947  0.48331413    -0.10500
C1213       C  0.11526429  0.43070394  0.50225397    -0.03500
C1214       C  0.15554159  0.44994117  0.49629547    -0.18600
H1215       H  0.34423612  0.47181275  0.47736958     0.10500
H1216       H  0.28692548  0.46594192  0.49693423     0.10600
H1217       H  0.26169864  0.49525249  0.41662288     0.10300
H1218       H  0.31954986  0.50141976  0.39678933     0.11400
H1219       H  0.22117888  0.45150149  0.48864684     0.11500
H1220       H  0.22412736  0.50636243  0.44369955     0.13400
H1221       H  0.15822037  0.49138892  0.43371227     0.09900
H1222       H  0.08725263  0.45652759  0.44393684     0.12000
H1223       H  0.10322209  0.41259212  0.52095440     0.08600
H1224       H  0.17336283  0.44677543  0.51117453     0.11300
C1225       C  0.69584602  0.17979742  0.41713609    -0.03300
C1226       C  0.72902888  0.19736217  0.39939929    -0.05900
C1227       C  0.76514799  0.23204560  0.40735775    -0.21000
C1228       C  0.76908865  0.25011528  0.43318698     0.24800
C1229       C  0.73551243  0.23323342  0.45057350    -0.18500
C1230       C  0.69945691  0.19832622  0.44272313    -0.08500
C1231       C  0.80909861  0.28526439  0.44143841    -0.18800
C1232       C  0.81968411  0.29852903  0.46794609    -0.23600
C1233       C  0.86196307  0.32574742  0.47635990     0.26800
C1234       C  0.87396675  0.31822553  0.50164482    -0.20300
C1235       C  0.91423820  0.33658230  0.50733690    -0.10000
C1236       C  0.94309641  0.36360298  0.48820979    -0.10500
C1237       C  0.93136597  0.37451254  0.46443259    -0.03500
C1238       C  0.89096039  0.35564682  0.45847521    -0.18600
H1239       H  0.72736062  0.18398235  0.37952022     0.10500
H1240       H  0.79039059  0.24435125  0.39347296     0.10600
H1241       H  0.73665803  0.24663513  0.47023738     0.10300
H1242       H  0.67438858  0.18586577  0.45677304     0.11400
H1243       H  0.83205573  0.29777597  0.42550716     0.11500
H1244       H  0.79813364  0.28435105  0.48467535     0.13400
H1245       H  0.85216547  0.29563344  0.51587791     0.09900
H1246       H  0.92279529  0.32769355  0.52573147     0.12000
H1247       H  0.95327052  0.39519386  0.44937826     0.08600
H1248       H  0.88247698  0.36287503  0.43921022     0.15500
loop_ 
_geom_bond_atom_site_label_1 
_geom_bond_atom_site_label_2 
_geom_bond_distance 
_geom_bond_site_symmetry_2 
_ccdc_geom_bond_type 
O1           Ni7   1.937       .  S
O1           C22   1.274       .  A
O2          Ni25   1.902   1_545  S
O2           C11   1.264       .  A
O3           Ni7   1.913   1_554  S
O3          Ni25   1.902       .  S
O3          Ni19   1.917   1_564  S
O3           H26   0.965       .  S
C4           O21   1.268       .  A
C4           O13   1.271       .  A
C4          C337   1.479       .  S
O5          Ni24   1.925       .  S
O5           C11   1.271       .  A
O6          Ni24   1.905       .  S
O6            C8   1.273       .  A
Ni7          O10   1.937   1_556  S
Ni7          O12   1.915       .  S
C8           O18   1.281   1_554  A
C8          N219   1.438       .  S
O9          Ni25   1.918       .  S
O9           C15   1.268       .  A
O10          C15   1.274       .  A
C11         C198   1.466       .  S
O12          C14   1.274       .  A
O13         Ni24   1.935   1_556  S
C14          O20   1.277   1_556  A
C14         N359   1.438       .  S
C15         C190   1.478       .  S
H16          O17   0.964       .  S
O17         Ni25   1.935   1_546  S
O17         Ni19   1.908       .  S
O17         Ni24   1.916   1_556  S
O18         Ni19   1.947       .  S
Ni19         O23   1.905   1_545  S
Ni19         O21   1.920       .  S
O20         Ni25   1.942       .  S
C22          O23   1.268       .  A
C22         C343   1.470       .  S
O27         Ni33   1.937   1_554  S
O27          C48   1.273       .  A
O28         Ni51   1.899       .  S
O28          C37   1.267       .  A
O29         Ni33   1.925   1_554  S
O29         Ni51   1.915   1_554  S
O29         Ni45   1.918       .  S
O29          H52   0.966       .  S
C30          O47   1.264       .  A
C30          O39   1.274       .  A
C30         C236   1.460       .  S
O31         Ni50   1.939   1_556  S
O31          C37   1.274       .  A
O32         Ni50   1.915       .  S
O32          C34   1.273       .  A
Ni33         O36   1.941       .  S
Ni33         O38   1.920       .  S
C34          O44   1.278       .  A
C34         C228   1.476       .  S
O35         Ni51   1.904       .  S
O35          C41   1.266       .  A
O36          C41   1.273       .  A
C37         N378   1.434       .  S
O38          C40   1.273       .  A
O39         Ni50   1.948       .  S
C40          O46   1.279       .  A
C40         C355   1.480       .  S
C41         C349   1.464       .  S
H42          O43   0.966   1_556  S
O43         Ni51   1.919   1_554  S
O43         Ni45   1.909       .  S
O43         Ni50   1.924       .  S
O44         Ni45   1.956       .  S
Ni45         O49   1.896       .  S
Ni45         O47   1.896       .  S
O46         Ni51   1.959       .  S
C48          O49   1.265       .  A
C48         N200   1.435       .  S
O53         Ni59   1.936       .  S
O53          C74   1.273       .  A
O54         Ni77   1.904       .  S
O54          C63   1.266       .  A
O55         Ni59   1.918       .  S
O55         Ni77   1.912   1_545  S
O55         Ni71   1.929   1_545  S
O55          H78   0.964       .  S
C56          O73   1.266       .  A
C56          O65   1.275       .  A
C56         C140   1.481       .  S
O57         Ni76   1.937       .  S
O57          C63   1.273       .  A
O58         Ni76   1.910       .  S
O58          C60   1.272       .  A
Ni59         O62   1.937       .  S
Ni59         O64   1.909       .  S
C60          O70   1.279       .  A
C60         N283   1.443       .  S
O61         Ni77   1.923   1_545  S
O61          C67   1.268       .  A
O62          C67   1.273       .  A
C63         C317   1.468       .  S
O64          C66   1.274       .  A
O65         Ni76   1.937       .  S
C66          O72   1.280       .  A
C66         N169   1.441       .  S
C67         C313   1.483       .  S
H68          O69   0.964       .  S
O69         Ni77   1.923       .  S
O69         Ni71   1.911       .  S
O69         Ni76   1.919       .  S
O70         Ni71   1.947       .  S
Ni71         O75   1.904   1_565  S
Ni71         O73   1.918       .  S
O72         Ni77   1.949   1_545  S
C74          O75   1.265       .  A
C74         C148   1.471       .  S
O79         Ni85   1.915       .  S
O79         C100   1.270       .  A
O80        Ni103   1.898       .  S
O80          C89   1.265       .  A
O81         Ni85   1.927   1_556  S
O81        Ni103   1.905   1_455  S
O81         Ni97   1.950   1_456  S
O81         H104   0.966       .  S
C82          O99   1.278       .  A
C82          O91   1.275       .  A
C82         C211   1.482       .  S
O83        Ni102   1.940       .  S
O83          C89   1.274       .  A
O84        Ni102   1.915       .  S
O84          C86   1.271       .  A
Ni85         O88   1.931   1_554  S
Ni85         O90   1.904       .  S
C86          O96   1.275   1_556  A
C86         N328   1.440       .  S
O87        Ni103   1.919   1_455  S
O87          C93   1.266       .  A
O88          C93   1.268       .  A
C89         C368   1.464       .  S
O90          C92   1.273       .  A
O91        Ni102   1.926   1_554  S
C92          O98   1.284   1_554  A
C92         N238   1.436       .  S
C93         C374   1.477       .  S
H94          O95   0.965   1_554  S
O95        Ni103   1.907       .  S
O95         Ni97   1.900   1_556  S
O95        Ni102   1.918       .  S
O96         Ni97   1.935       .  S
Ni97        O101   1.910   1_655  S
Ni97         O99   1.935       .  S
O98        Ni103   1.952   1_455  S
C100        O101   1.269       .  A
C100        C217   1.463       .  S
O105       Ni111   1.919       .  S
O105        C126   1.270       .  A
O106       Ni129   1.895   1_455  S
O106        C115   1.263       .  A
O107       Ni111   1.923       .  S
O107       Ni129   1.908       .  S
O107       Ni123   1.935       .  S
O107        H130   0.965       .  S
C108        O125   1.273       .  A
C108        O117   1.274       .  A
C108        C298   1.472       .  S
O109       Ni128   1.933       .  S
O109        C115   1.271       .  A
O110       Ni128   1.909       .  S
O110        C112   1.269       .  A
Ni111       O114   1.927       .  S
Ni111       O116   1.908       .  S
C112        O122   1.275       .  A
C112        N131   1.438       .  S
O113       Ni129   1.910       .  S
O113        C119   1.264       .  A
O114        C119   1.270       .  A
C115        C167   1.457       .  S
O116        C118   1.273       .  A
O117       Ni128   1.924       .  S
C118        O124   1.281       .  A
C118        N321   1.438       .  S
C119        C159   1.471       .  S
H120        O121   0.970       .  S
O121       Ni129   1.904   1_455  S
O121       Ni123   1.903   1_455  S
O121       Ni128   1.918       .  S
O122       Ni123   1.934   1_455  S
Ni123       O127   1.907       .  S
Ni123       O125   1.919   1_655  S
O124       Ni129   1.948       .  S
C126        O127   1.267       .  A
C126        C294   1.464       .  S
N131        C135   1.356   1_455  A
N131        C132   1.359       .  A
C132       C1212   1.477       .  S
C132        C133   1.382       .  A
C133        C134   1.371   1_455  A
C133        H136   1.082       .  S
C134        C135   1.381       .  A
C134        H137   1.082       .  S
C135       C1236   1.474       .  S
C138       C1153   1.493       .  S
C138        N139   1.370       .  A
C138        N143   1.365       .  A
N139        C140   1.368       .  A
C140        N141   1.355       .  A
N141        C142   1.353       .  A
C142       C1188   1.488       .  S
C142        N143   1.360       .  A
C144       C1129   1.492       .  S
C144        N145   1.360       .  A
C144        N149   1.366       .  A
N145        C146   1.358       .  A
C146       C1225   1.485       .  S
C146        N147   1.357       .  A
N147        C148   1.357       .  A
C148        N149   1.365       .  A
N150        C255   1.430       .  S
N150        C154   1.352       .  A
N150        C151   1.354       .  A
C151       C1177   1.477       .  S
C151        C152   1.383       .  A
C152        C153   1.376       .  A
C152        H155   1.082       .  S
C153        C154   1.382       .  A
C153        H156   1.082       .  S
C154       C1105   1.472       .  S
C157       C1081   1.490       .  S
C157        N158   1.365       .  A
C157        N162   1.363       .  A
N158        C159   1.363       .  A
C159        N160   1.356       .  A
N160        C161   1.354       .  A
C161       C1116   1.486       .  S
C161        N162   1.359       .  A
C163       C1044   1.485       .  S
C163        N164   1.363       .  A
C163        N168   1.364       .  A
N164        C165   1.360       .  A
C165       C1057   1.482       .  S
C165        N166   1.353       .  A
N166        C167   1.351       .  A
C167        N168   1.361       .  A
N169        C173   1.356   1_545  A
N169        C170   1.357       .  A
C170       C1009   1.473       .  S
C170        C171   1.381       .  A
C171        C172   1.374   1_545  A
C171        H174   1.082       .  S
C172        C173   1.383       .  A
C172        H175   1.082       .  S
C173       C1068   1.472       .  S
C176        C985   1.497       .  S
C176        N177   1.369       .  A
C176        N181   1.365       .  A
N177        C178   1.367       .  A
C178        C258   1.468       .  S
C178        N179   1.352       .  A
N179        C180   1.353       .  A
C180       C1201   1.485       .  S
C180        N181   1.358       .  A
C182        C961   1.490       .  S
C182        N183   1.365       .  A
C182        N187   1.364       .  A
N183        C184   1.361       .  A
C184        C259   1.464       .  S
C184        N185   1.353       .  A
N185        C186   1.356       .  A
C186       C1020   1.485       .  S
C186        N187   1.359       .  A
C188       C1164   1.496       .  S
C188        N189   1.368       .  A
C188        N193   1.364       .  A
N189        C190   1.367       .  A
C190        N191   1.359       .  A
N191        C192   1.354       .  A
C192        C937   1.483       .  S
C192        N193   1.359       .  A
C194       C1140   1.481       .  S
C194        N195   1.362       .  A
C194        N199   1.363       .  A
N195        C196   1.361       .  A
C196        C924   1.484       .  S
C196        N197   1.355       .  A
N197        C198   1.354       .  A
C198        N199   1.362       .  A
N200        C204   1.360       .  A
N200        C201   1.359       .  A
C201        C889   1.483       .  S
C201        C202   1.382       .  A
C202        C203   1.372       .  A
C202        H205   1.082       .  S
C203        C204   1.383       .  A
C203        H206   1.082       .  S
C204        C948   1.484       .  S
C207       C1092   1.485       .  S
C207        N208   1.364       .  A
C207        N212   1.365       .  A
N208        C209   1.359       .  A
C209        C900   1.496       .  S
C209        N210   1.358       .  A
N210        C211   1.362       .  A
C211        N212   1.364       .  A
C213       C1033   1.478       .  S
C213        N214   1.359       .  A
C213        N218   1.362       .  A
N214        C215   1.357       .  A
C215        C876   1.483       .  S
C215        N216   1.356       .  A
N216        C217   1.358       .  A
C217        N218   1.361       .  A
N219        C223   1.354   1_545  A
N219        C220   1.355       .  A
C220        C841   1.472       .  S
C220        C221   1.381       .  A
C221        C222   1.374   1_545  A
C221        H224   1.082       .  S
C222        C223   1.383       .  A
C222        H225   1.082       .  S
C223        C865   1.473       .  S
C226        C996   1.497       .  S
C226        N227   1.365       .  A
C226        N231   1.359       .  A
N227        C228   1.368       .  A
C228        N229   1.361       .  A
N229        C230   1.360       .  A
C230        C828   1.490       .  S
C230        N231   1.357       .  A
C232        C972   1.487       .  S
C232        N233   1.362       .  A
C232        N237   1.365       .  A
N233        C234   1.358       .  A
C234        C852   1.481       .  S
C234        N235   1.354       .  A
N235        C236   1.352       .  A
C236        N237   1.362       .  A
N238        C242   1.355   1_455  A
N238        C239   1.361       .  A
C239        C817   1.480       .  S
C239        C240   1.384       .  A
C240        C241   1.370   1_455  A
C240        H243   1.082       .  S
C241        C242   1.379       .  A
C241        H244   1.082       .  S
C242        C913   1.470       .  S
O245       Ni251   1.941       .  S
O245        C266   1.273       .  A
O246       Ni269   1.903       .  S
O246        C255   1.265       .  A
O247       Ni251   1.920       .  S
O247       Ni269   1.921       .  S
O247       Ni263   1.916       .  S
O247        H270   0.966       .  S
C248        O265   1.267       .  A
C248        O257   1.273       .  A
C248        C273   1.458       .  S
O249       Ni268   1.934       .  S
O249        C255   1.272       .  A
O250       Ni268   1.911       .  S
O250        C252   1.269       .  A
Ni251       O254   1.928       .  S
Ni251       O256   1.914       .  S
C252        O262   1.272       .  A
C252        C279   1.469       .  S
O253       Ni269   1.913       .  S
O253        C259   1.271       .  A
O254        C259   1.274       .  A
O256        C258   1.271       .  A
O257       Ni268   1.929       .  S
C258        O264   1.271       .  A
H260        O261   0.966       .  S
O261       Ni269   1.920       .  S
O261       Ni263   1.919       .  S
O261       Ni268   1.921       .  S
O262       Ni263   1.939       .  S
Ni263       O267   1.902       .  S
Ni263       O265   1.904       .  S
O264       Ni269   1.934       .  S
C266        O267   1.264       .  A
C266        N302   1.434       .  S
C271        C769   1.487       .  S
C271        N272   1.363       .  A
C271        N276   1.362       .  A
N272        C273   1.360       .  A
C273        N274   1.353       .  A
N274        C275   1.355       .  A
C275        C804   1.482       .  S
C275        N276   1.357       .  A
C277        C732   1.497       .  S
C277        N278   1.368       .  A
C277        N282   1.363       .  A
N278        C279   1.368       .  A
C279        N280   1.355       .  A
N280        C281   1.354       .  A
C281        C745   1.484       .  S
C281        N282   1.357       .  A
N283        C287   1.358   1_565  A
N283        C284   1.360       .  A
C284        C793   1.477       .  S
C284        C285   1.382       .  A
C285        C286   1.373       .  A
C285        H288   1.082       .  S
C286        C287   1.383   1_565  A
C286        H289   1.082   1_565  S
C287        C697   1.477       .  S
C290        C673   1.483       .  S
C290        N291   1.360       .  A
C290        N295   1.363       .  A
N291        C292   1.357       .  A
C292        C708   1.486       .  S
C292        N293   1.355       .  A
N293        C294   1.358       .  A
C294        N295   1.362       .  A
C296        C636   1.477       .  S
C296        N297   1.362       .  A
C296        N301   1.362       .  A
N297        C298   1.361       .  A
C298        N299   1.359       .  A
N299        C300   1.356       .  A
C300        C660   1.488       .  S
C300        N301   1.358       .  A
N302        C306   1.357       .  A
N302        C303   1.356       .  A
C303        C649   1.476       .  S
C303        C304   1.382       .  A
C304        C305   1.374       .  A
C304        H307   1.082       .  S
C305        C306   1.384       .  A
C305        H308   1.082       .  S
C306        C612   1.483       .  S
C309        C577   1.490       .  S
C309        N310   1.362       .  A
C309        N314   1.368       .  A
N310        C311   1.357       .  A
C311        C601   1.489       .  S
C311        N312   1.356       .  A
N312        C313   1.360       .  A
C313        N314   1.368       .  A
C315        C529   1.489       .  S
C315        N316   1.364       .  A
C315        N320   1.363       .  A
N316        C317   1.361       .  A
C317        N318   1.356       .  A
N318        C319   1.358       .  A
C319        C553   1.488       .  S
C319        N320   1.361       .  A
N321        C325   1.358       .  A
N321        C322   1.359       .  A
C322        C756   1.478       .  S
C322        C323   1.382       .  A
C323        C324   1.372       .  A
C323        H326   1.082       .  S
C324        C325   1.382       .  A
C324        H327   1.082   1_655  S
C325        C564   1.479   1_655  S
N328        C332   1.358   1_655  A
N328        C329   1.360       .  A
C329        C505   1.480       .  S
C329        C330   1.383       .  A
C330        C331   1.372   1_655  A
C330        H333   1.082       .  S
C331        C332   1.382       .  A
C331        H334   1.082       .  S
C332        C492   1.476       .  S
C335        C588   1.489       .  S
C335        N336   1.364       .  A
C335        N340   1.358       .  A
N336        C337   1.366       .  A
C337        N338   1.364       .  A
N338        C339   1.358       .  A
C339        C457   1.491       .  S
C339        N340   1.357       .  A
C341        C540   1.483       .  S
C341        N342   1.362       .  A
C341        N346   1.358       .  A
N342        C343   1.363       .  A
C343        N344   1.362       .  A
N344        C345   1.360       .  A
C345        C481   1.488       .  S
C345        N346   1.356       .  A
C347        C780   1.483       .  S
C347        N348   1.365       .  A
C347        N352   1.359       .  A
N348        C349   1.363       .  A
C349        N350   1.356       .  A
N350        C351   1.356       .  A
C351        C444   1.484       .  S
C351        N352   1.355       .  A
C353        C721   1.497       .  S
C353        N354   1.365       .  A
C353        N358   1.358       .  A
N354        C355   1.367       .  A
C355        N356   1.364       .  A
N356        C357   1.363       .  A
C357        C516   1.492       .  S
C357        N358   1.358       .  A
N359        C363   1.359   1_565  A
N359        C360   1.357       .  A
C360        C433   1.475       .  S
C360        C361   1.381       .  A
C361        C362   1.373   1_565  A
C361        H364   1.082       .  S
C362        C363   1.383       .  A
C362        H365   1.082       .  S
C363        C409   1.479       .  S
C366        C684   1.487       .  S
C366        N367   1.362       .  A
C366        N371   1.359       .  A
N367        C368   1.361       .  A
C368        N369   1.359       .  A
N369        C370   1.359       .  A
C370        C420   1.487       .  S
C370        N371   1.358       .  A
C372        C625   1.482       .  S
C372        N373   1.363       .  A
C372        N377   1.356       .  A
N373        C374   1.364       .  A
C374        N375   1.365       .  A
N375        C376   1.359       .  A
C376        C385   1.489       .  S
C376        N377   1.354       .  A
N378        C382   1.356       .  A
N378        C379   1.357       .  A
C379        C396   1.478       .  S
C379        C380   1.383       .  A
C380        C381   1.374       .  A
C380        H383   1.082       .  S
C381        C382   1.382       .  A
C381        H384   1.082       .  S
C382        C468   1.477       .  S
C385        C386   1.406       .  A
C385        C390   1.407       .  A
C386        C387   1.394       .  A
C386        H399   1.083       .  S
C387        C388   1.403       .  A
C387        H400   1.084       .  S
C388        C389   1.409       .  A
C388        C391   1.492       .  S
C389        C390   1.407       .  A
C389        H401   1.078       .  S
C390        H402   1.082       .  S
C391        C392   1.351       .  D
C391        H403   1.085       .  S
C392        C393   1.493       .  S
C392        H404   1.084       .  S
C393        C394   1.407       .  A
C393        C398   1.409       .  A
C394        C395   1.404       .  A
C394        H405   1.083       .  S
C395        C396   1.403       .  A
C395        H406   1.083       .  S
C396        C397   1.402       .  A
C397        C398   1.396       .  A
C397        H407   1.084       .  S
C398        H408   1.082       .  S
C409        C410   1.404   1_556  A
C409        C414   1.402       .  A
C410        C411   1.397   1_554  A
C410        H423   1.083       .  S
C411        C412   1.403       .  A
C411        H424   1.084   1_556  S
C412        C413   1.409       .  A
C412        C415   1.488       .  S
C413        C414   1.402       .  A
C413        H425   1.082       .  S
C414        H426   1.083       .  S
C415        C416   1.349       .  D
C415        H427   1.084       .  S
C416        C417   1.490       .  S
C416        H428   1.086       .  S
C417        C418   1.403       .  A
C417        C422   1.409       .  A
C418        C419   1.396       .  A
C418        H429   1.084       .  S
C419        C420   1.406       .  A
C419        H430   1.083       .  S
C420        C421   1.407       .  A
C421        C422   1.402       .  A
C421        H431   1.083       .  S
C422        H432   1.081       .  S
C433        C434   1.401       .  A
C433        C438   1.402       .  A
C434        C435   1.395       .  A
C434        H447   1.083   1_556  S
C435        C436   1.404       .  A
C435        H448   1.082   1_556  S
C436        C437   1.409       .  A
C436        C439   1.486       .  S
C437        C438   1.400       .  A
C437        H449   1.081       .  S
C438        H450   1.083       .  S
C439        C440   1.348       .  D
C439        H451   1.083       .  S
C440        C441   1.490       .  S
C440        H452   1.085       .  S
C441        C442   1.404       .  A
C441        C446   1.409       .  A
C442        C443   1.399       .  A
C442        H453   1.083       .  S
C443        C444   1.407       .  A
C443        H454   1.083       .  S
C444        C445   1.405       .  A
C445        C446   1.397       .  A
C445        H455   1.083       .  S
C446        H456   1.080       .  S
C457        C458   1.405       .  A
C457        C462   1.410       .  A
C458        C459   1.393       .  A
C458        H471   1.083       .  S
C459        C460   1.403       .  A
C459        H472   1.084       .  S
C460        C461   1.409       .  A
C460        C463   1.490       .  S
C461        C462   1.408       .  A
C461        H473   1.082       .  S
C462        H474   1.083       .  S
C463        C464   1.351       .  D
C463        H475   1.084       .  S
C464        C465   1.497       .  S
C464        H476   1.085       .  S
C465        C466   1.408       .  A
C465        C470   1.410       .  A
C466        C467   1.404       .  A
C466        H477   1.083       .  S
C467        C468   1.402       .  A
C467        H478   1.083       .  S
C468        C469   1.400       .  A
C469        C470   1.397       .  A
C469        H479   1.084       .  S
C470        H480   1.081       .  S
C481        C482   1.407       .  A
C481        C486   1.406       .  A
C482        C483   1.397       .  A
C482        H495   1.083       .  S
C483        C484   1.403       .  A
C483        H496   1.084       .  S
C484        C485   1.409       .  A
C484        C487   1.493       .  S
C485        C486   1.402       .  A
C485        H497   1.076       .  S
C486        H498   1.083       .  S
C487        C488   1.350       .  D
C487        H499   1.086       .  S
C488        C489   1.488       .  S
C488        H500   1.083       .  S
C489        C490   1.404   1_556  A
C489        C494   1.410       .  A
C490        C491   1.397       .  A
C490        H501   1.084       .  S
C491        C492   1.402   1_554  A
C491        H502   1.083       .  S
C492        C493   1.402       .  A
C493        C494   1.401       .  A
C493        H503   1.083       .  S
C494        H504   1.082       .  S
C505        C506   1.402   1_556  A
C505        C510   1.402       .  A
C506        C507   1.396       .  A
C506        H519   1.083       .  S
C507        C508   1.405   1_554  A
C507        H520   1.083       .  S
C508        C509   1.414       .  A
C508        C511   1.497       .  S
C509        C510   1.403       .  A
C509        H521   1.079       .  S
C510        H522   1.083       .  S
C511        C512   1.349       .  D
C511        H523   1.085       .  S
C512        C513   1.494       .  S
C512        H524   1.082       .  S
C513        C514   1.402       .  A
C513        C518   1.411       .  A
C514        C515   1.396       .  A
C514        H525   1.084       .  S
C515        C516   1.408       .  A
C515        H526   1.083       .  S
C516        C517   1.408       .  A
C517        C518   1.406       .  A
C517        H527   1.083       .  S
C518        H528   1.081       .  S
C529        C530   1.407       .  A
C529        C534   1.406       .  A
C530        C531   1.403       .  A
C530        H543   1.083       .  S
C531        C532   1.404       .  A
C531        H544   1.083       .  S
C532        C533   1.409       .  A
C532        C535   1.492       .  S
C533        C534   1.398       .  A
C533        H545   1.082       .  S
C534        H546   1.083       .  S
C535        C536   1.348       .  D
C535        H547   1.085       .  S
C536        C537   1.489       .  S
C536        H548   1.086       .  S
C537        C538   1.402       .  A
C537        C542   1.410       .  A
C538        C539   1.394       .  A
C538        H549   1.084       .  S
C539        C540   1.404       .  A
C539        H550   1.083       .  S
C540        C541   1.407       .  A
C541        C542   1.406       .  A
C541        H551   1.083       .  S
C542        H552   1.081       .  S
C553        C554   1.406       .  A
C553        C558   1.408       .  A
C554        C555   1.400       .  A
C554        H567   1.083       .  S
C555        C556   1.405       .  A
C555        H568   1.083       .  S
C556        C557   1.407       .  A
C556        C559   1.491       .  S
C557        C558   1.399       .  A
C557        H569   1.081       .  S
C558        H570   1.083       .  S
C559        C560   1.350       .  D
C559        H571   1.086       .  S
C560        C561   1.488       .  S
C560        H572   1.084       .  S
C561        C562   1.409       .  A
C561        C566   1.403       .  A
C562        C563   1.403       .  A
C562        H573   1.082       .  S
C563        C564   1.403       .  A
C563        H574   1.083       .  S
C564        C565   1.403       .  A
C565        C566   1.397       .  A
C565        H575   1.083       .  S
C566        H576   1.084       .  S
C577        C578   1.405       .  A
C577        C582   1.408       .  A
C578        C579   1.396       .  A
C578        H591   1.083       .  S
C579        C580   1.403       .  A
C579        H592   1.084       .  S
C580        C581   1.411       .  A
C580        C583   1.495       .  S
C581        C582   1.410       .  A
C581        H593   1.081       .  S
C582        H594   1.083       .  S
C583        C584   1.352       .  D
C583        H595   1.085       .  S
C584        C585   1.499       .  S
C584        H596   1.085       .  S
C585        C586   1.408       .  A
C585        C590   1.408       .  A
C586        C587   1.408       .  A
C586        H597   1.083       .  S
C587        C588   1.406       .  A
C587        H598   1.083       .  S
C588        C589   1.406       .  A
C589        C590   1.397       .  A
C589        H599   1.083       .  S
C590        H600   1.081       .  S
C601        C602   1.407       .  A
C601        C606   1.407       .  A
C602        C603   1.399       .  A
C602        H615   1.082       .  S
C603        C604   1.404       .  A
C603        H616   1.084       .  S
C604        C605   1.408       .  A
C604        C607   1.489       .  S
C605        C606   1.403       .  A
C605        H617   1.082       .  S
C606        H618   1.083       .  S
C607        C608   1.349       .  D
C607        H619   1.086       .  S
C608        C609   1.491       .  S
C608        H620   1.086       .  S
C609        C610   1.407       .  A
C609        C614   1.407       .  A
C610        C611   1.404       .  A
C610        H621   1.083       .  S
C611        C612   1.404       .  A
C611        H622   1.083       .  S
C612        C613   1.403       .  A
C613        C614   1.396       .  A
C613        H623   1.083       .  S
C614        H624   1.082       .  S
C625        C626   1.405       .  A
C625        C630   1.405       .  A
C626        C627   1.404       .  A
C626        H639   1.083       .  S
C627        C628   1.406       .  A
C627        H640   1.083       .  S
C628        C629   1.407       .  A
C628        C631   1.490       .  S
C629        C630   1.393       .  A
C629        H641   1.081       .  S
C630        H642   1.083       .  S
C631        C632   1.348       .  D
C631        H643   1.086       .  S
C632        C633   1.483       .  S
C632        H644   1.086       .  S
C633        C634   1.402       .  A
C633        C638   1.408       .  A
C634        C635   1.394       .  A
C634        H645   1.084       .  S
C635        C636   1.402       .  A
C635        H646   1.083       .  S
C636        C637   1.406       .  A
C637        C638   1.404       .  A
C637        H647   1.083       .  S
C638        H648   1.082       .  S
C649        C650   1.403       .  A
C649        C654   1.402       .  A
C650        C651   1.403       .  A
C650        H663   1.083       .  S
C651        C652   1.407       .  A
C651        H664   1.083       .  S
C652        C653   1.408       .  A
C652        C655   1.490       .  S
C653        C654   1.397       .  A
C653        H665   1.082       .  S
C654        H666   1.084       .  S
C655        C656   1.348       .  D
C655        H667   1.086       .  S
C656        C657   1.487       .  S
C656        H668   1.084       .  S
C657        C658   1.402       .  A
C657        C662   1.407       .  A
C658        C659   1.399       .  A
C658        H669   1.083       .  S
C659        C660   1.408       .  A
C659        H670   1.083       .  S
C660        C661   1.407       .  A
C661        C662   1.401       .  A
C661        H671   1.083       .  S
C662        H672   1.082       .  S
C673        C674   1.404       .  A
C673        C678   1.407       .  A
C674        C675   1.394       .  A
C674        H687   1.083       .  S
C675        C676   1.402       .  A
C675        H688   1.084       .  S
C676        C677   1.410       .  A
C676        C679   1.488       .  S
C677        C678   1.405       .  A
C677        H689   1.081       .  S
C678        H690   1.083       .  S
C679        C680   1.348       .  D
C679        H691   1.086       .  S
C680        C681   1.490       .  S
C680        H692   1.085       .  S
C681        C682   1.404       .  A
C681        C686   1.407       .  A
C682        C683   1.403       .  A
C682        H693   1.082       .  S
C683        C684   1.407       .  A
C683        H694   1.083       .  S
C684        C685   1.406       .  A
C685        C686   1.396       .  A
C685        H695   1.083       .  S
C686        H696   1.082       .  S
C697        C698   1.404       .  A
C697        C702   1.402       .  A
C698        C699   1.399       .  A
C698        H711   1.083       .  S
C699        C700   1.404       .  A
C699        H712   1.084       .  S
C700        C701   1.408       .  A
C700        C703   1.487       .  S
C701        C702   1.399       .  A
C701        H713   1.082       .  S
C702        H714   1.083       .  S
C703        C704   1.349       .  D
C703        H715   1.085       .  S
C704        C705   1.488       .  S
C704        H716   1.086       .  S
C705        C706   1.403       .  A
C705        C710   1.407       .  A
C706        C707   1.396       .  A
C706        H717   1.083       .  S
C707        C708   1.405       .  A
C707        H718   1.083       .  S
C708        C709   1.408       .  A
C709        C710   1.401       .  A
C709        H719   1.083       .  S
C710        H720   1.081       .  S
C721        C722   1.408       .  A
C721        C726   1.409       .  A
C722        C723   1.409       .  A
C722        H735   1.083       .  S
C723        C724   1.408       .  A
C723        H736   1.083       .  S
C724        C725   1.409       .  A
C724        C727   1.504       .  S
C725        C726   1.400       .  A
C725        H737   1.081       .  S
C726        H738   1.083       .  S
C727        C728   1.353       .  D
C727        H739   1.085       .  S
C728        C729   1.499       .  S
C728        H740   1.085       .  S
C729        C730   1.403       .  A
C729        C734   1.413       .  A
C730        C731   1.395       .  A
C730        H741   1.084       .  S
C731        C732   1.406       .  A
C731        H742   1.083       .  S
C732        C733   1.411       .  A
C733        C734   1.413       .  A
C733        H743   1.083       .  S
C734        H744   1.081       .  S
C745        C746   1.406       .  A
C745        C750   1.405       .  A
C746        C747   1.398       .  A
C746        H759   1.083       .  S
C747        C748   1.404       .  A
C747        H760   1.083       .  S
C748        C749   1.410       .  A
C748        C751   1.491       .  S
C749        C750   1.400       .  A
C749        H761   1.081       .  S
C750        H762   1.083       .  S
C751        C752   1.350       .  D
C751        H763   1.082       .  S
C752        C753   1.495       .  S
C752        H764   1.085       .  S
C753        C754   1.408       .  A
C753        C758   1.411       .  A
C754        C755   1.401       .  A
C754        H765   1.083       .  S
C755        C756   1.401       .  A
C755        H766   1.083       .  S
C756        C757   1.401       .  A
C757        C758   1.397       .  A
C757        H767   1.084       .  S
C758        H768   1.079       .  S
C769        C770   1.409       .  A
C769        C774   1.405       .  A
C770        C771   1.404       .  A
C770        H783   1.083       .  S
C771        C772   1.405       .  A
C771        H784   1.083       .  S
C772        C773   1.406       .  A
C772        C775   1.490       .  S
C773        C774   1.393       .  A
C773        H785   1.082       .  S
C774        H786   1.083       .  S
C775        C776   1.349       .  D
C775        H787   1.084       .  S
C776        C777   1.489       .  S
C776        H788   1.086       .  S
C777        C778   1.403       .  A
C777        C782   1.411       .  A
C778        C779   1.393       .  A
C778        H789   1.084       .  S
C779        C780   1.404       .  A
C779        H790   1.083       .  S
C780        C781   1.407       .  A
C781        C782   1.406       .  A
C781        H791   1.083       .  S
C782        H792   1.081       .  S
C793        C794   1.404       .  A
C793        C798   1.402       .  A
C794        C795   1.401       .  A
C794        H807   1.083       .  S
C795        C796   1.404       .  A
C795        H808   1.083       .  S
C796        C797   1.407       .  A
C796        C799   1.485       .  S
C797        C798   1.396       .  A
C797        H809   1.081       .  S
C798        H810   1.084       .  S
C799        C800   1.347       .  D
C799        H811   1.083       .  S
C800        C801   1.490       .  S
C800        H812   1.087       .  S
C801        C802   1.403       .  A
C801        C806   1.411       .  A
C802        C803   1.394       .  A
C802        H813   1.084       .  S
C803        C804   1.404       .  A
C803        H814   1.083       .  S
C804        C805   1.406       .  A
C805        C806   1.401       .  A
C805        H815   1.083       .  S
C806        H816   1.080       .  S
C817        C818   1.402       .  A
C817        C822   1.404       .  A
C818        C819   1.395       .  A
C818        H831   1.084   1_554  S
C819        C820   1.402       .  A
C819        H832   1.081   1_554  S
C820        C821   1.412       .  A
C820        C823   1.494       .  S
C821        C822   1.407       .  A
C821        H833   1.082       .  S
C822        H834   1.083       .  S
C823        C824   1.350       .  D
C823        H835   1.083       .  S
C824        C825   1.498       .  S
C824        H836   1.085       .  S
C825        C826   1.404       .  A
C825        C830   1.412       .  A
C826        C827   1.398       .  A
C826        H837   1.083       .  S
C827        C828   1.407       .  A
C827        H838   1.083       .  S
C828        C829   1.407       .  A
C829        C830   1.404       .  A
C829        H839   1.083       .  S
C830        H840   1.080       .  S
C841        C842   1.402       .  A
C841        C846   1.400       .  A
C842        C843   1.397       .  A
C842        H855   1.083       .  S
C843        C844   1.403       .  A
C843        H856   1.083       .  S
C844        C845   1.409       .  A
C844        C847   1.482       .  S
C845        C846   1.395       .  A
C845        H857   1.081       .  S
C846        H858   1.084   1_554  S
C847        C848   1.346       .  D
C847        H859   1.083       .  S
C848        C849   1.486       .  S
C848        H860   1.086       .  S
C849        C850   1.402       .  A
C849        C854   1.409       .  A
C850        C851   1.395       .  A
C850        H861   1.084       .  S
C851        C852   1.406       .  A
C851        H862   1.083       .  S
C852        C853   1.405       .  A
C853        C854   1.399       .  A
C853        H863   1.083       .  S
C854        H864   1.080       .  S
C865        C866   1.402       .  A
C865        C870   1.401   1_554  A
C866        C867   1.398       .  A
C866        H879   1.083       .  S
C867        C868   1.409       .  A
C867        H880   1.082       .  S
C868        C869   1.404   1_554  A
C868        C871   1.485       .  S
C869        C870   1.395       .  A
C869        H881   1.084       .  S
C870        H882   1.083       .  S
C871        C872   1.348       .  D
C871        H883   1.084       .  S
C872        C873   1.485       .  S
C872        H884   1.085       .  S
C873        C874   1.402       .  A
C873        C878   1.406       .  A
C874        C875   1.396       .  A
C874        H885   1.083       .  S
C875        C876   1.406       .  A
C875        H886   1.083       .  S
C876        C877   1.407       .  A
C877        C878   1.398       .  A
C877        H887   1.083       .  S
C878        H888   1.078       .  S
C889        C890   1.403       .  A
C889        C894   1.405       .  A
C890        C891   1.397       .  A
C890        H903   1.083       .  S
C891        C892   1.404       .  A
C891        H904   1.084       .  S
C892        C893   1.412       .  A
C892        C895   1.495       .  S
C893        C894   1.406       .  A
C893        H905   1.081       .  S
C894        H906   1.083       .  S
C895        C896   1.350       .  D
C895        H907   1.086       .  S
C896        C897   1.495       .  S
C896        H908   1.084       .  S
C897        C898   1.409       .  A
C897        C902   1.403       .  A
C898        C899   1.404       .  A
C898        H909   1.082       .  S
C899        C900   1.408       .  A
C899        H910   1.083       .  S
C900        C901   1.408       .  A
C901        C902   1.402       .  A
C901        H911   1.083       .  S
C902        H912   1.081       .  S
C913        C914   1.401       .  A
C913        C918   1.401   1_554  A
C914        C915   1.399       .  A
C914        H927   1.083       .  S
C915        C916   1.408       .  A
C915        H928   1.083       .  S
C916        C917   1.403       .  A
C916        C919   1.483       .  S
C917        C918   1.396   1_554  A
C917        H929   1.083   1_554  S
C918        H930   1.083       .  S
C919        C920   1.350       .  D
C919        H931   1.082       .  S
C920        C921   1.491       .  S
C920        H932   1.086       .  S
C921        C922   1.406       .  A
C921        C926   1.408       .  A
C922        C923   1.399       .  A
C922        H933   1.083       .  S
C923        C924   1.404       .  A
C923        H934   1.083       .  S
C924        C925   1.407       .  A
C925        C926   1.397       .  A
C925        H935   1.083       .  S
C926        H936   1.079       .  S
C937        C938   1.408       .  A
C937        C942   1.402       .  A
C938        C939   1.404       .  A
C938        H951   1.083       .  S
C939        C940   1.404       .  A
C939        H952   1.083       .  S
C940        C941   1.408       .  A
C940        C943   1.492       .  S
C941        C942   1.399       .  A
C941        H953   1.082       .  S
C942        H954   1.083       .  S
C943        C944   1.348       .  D
C943        H955   1.085       .  S
C944        C945   1.492       .  S
C944        H956   1.087       .  S
C945        C946   1.403       .  A
C945        C950   1.412       .  A
C946        C947   1.395       .  A
C946        H957   1.084       .  S
C947        C948   1.402       .  A
C947        H958   1.084       .  S
C948        C949   1.406       .  A
C949        C950   1.409       .  A
C949        H959   1.083       .  S
C950        H960   1.081       .  S
C961        C962   1.409       .  A
C961        C966   1.405       .  A
C962        C963   1.406       .  A
C962        H975   1.083       .  S
C963        C964   1.406       .  A
C963        H976   1.083       .  S
C964        C965   1.408       .  A
C964        C967   1.496       .  S
C965        C966   1.396       .  A
C965        H977   1.081       .  S
C966        H978   1.083       .  S
C967        C968   1.351       .  D
C967        H979   1.084       .  S
C968        C969   1.493       .  S
C968        H980   1.085       .  S
C969        C970   1.404       .  A
C969        C974   1.411       .  A
C970        C971   1.395       .  A
C970        H981   1.084       .  S
C971        C972   1.404       .  A
C971        H982   1.083       .  S
C972        C973   1.408       .  A
C973        C974   1.408       .  A
C973        H983   1.083       .  S
C974        H984   1.081       .  S
C985        C986   1.406       .  A
C985        C990   1.411       .  A
C986        C987   1.396       .  A
C986        H999   1.083       .  S
C987        C988   1.405       .  A
C987       H1000   1.084       .  S
C988        C989   1.412       .  A
C988        C991   1.500       .  S
C989        C990   1.412       .  A
C989       H1001   1.081       .  S
C990       H1002   1.083       .  S
C991        C992   1.354       .  D
C991       H1003   1.086       .  S
C992        C993   1.501       .  S
C992       H1004   1.084       .  S
C993        C994   1.409       .  A
C993        C998   1.407       .  A
C994        C995   1.411       .  A
C994       H1005   1.083       .  S
C995        C996   1.409       .  A
C995       H1006   1.083       .  S
C996        C997   1.408       .  A
C997        C998   1.397       .  A
C997       H1007   1.083       .  S
C998       H1008   1.082       .  S
C1009      C1010   1.401       .  A
C1009      C1014   1.400       .  A
C1010      C1011   1.396       .  A
C1010      H1023   1.083       .  S
C1011      C1012   1.403       .  A
C1011      H1024   1.083       .  S
C1012      C1013   1.411       .  A
C1012      C1015   1.487       .  S
C1013      C1014   1.399       .  A
C1013      H1025   1.082       .  S
C1014      H1026   1.083       .  S
C1015      C1016   1.346       .  D
C1015      H1027   1.085       .  S
C1016      C1017   1.485       .  S
C1016      H1028   1.085       .  S
C1017      C1018   1.401       .  A
C1017      C1022   1.409       .  A
C1018      C1019   1.392       .  A
C1018      H1029   1.084       .  S
C1019      C1020   1.406       .  A
C1019      H1030   1.083       .  S
C1020      C1021   1.408       .  A
C1021      C1022   1.404       .  A
C1021      H1031   1.083       .  S
C1022      H1032   1.082       .  S
C1033      C1034   1.403       .  A
C1033      C1038   1.406       .  A
C1034      C1035   1.394       .  A
C1034      H1047   1.083       .  S
C1035      C1036   1.403       .  A
C1035      H1048   1.084       .  S
C1036      C1037   1.409       .  A
C1036      C1039   1.487       .  S
C1037      C1038   1.404       .  A
C1037      H1049   1.082       .  S
C1038      H1050   1.083       .  S
C1039      C1040   1.349       .  D
C1039      H1051   1.084       .  S
C1040      C1041   1.493       .  S
C1040      H1052   1.085       .  S
C1041      C1042   1.405       .  A
C1041      C1046   1.409       .  A
C1042      C1043   1.404       .  A
C1042      H1053   1.083       .  S
C1043      C1044   1.407       .  A
C1043      H1054   1.083       .  S
C1044      C1045   1.404       .  A
C1045      C1046   1.397       .  A
C1045      H1055   1.083       .  S
C1046      H1056   1.081       .  S
C1057      C1058   1.404       .  A
C1057      C1062   1.409       .  A
C1058      C1059   1.397       .  A
C1058      H1071   1.083       .  S
C1059      C1060   1.405       .  A
C1059      H1072   1.083       .  S
C1060      C1061   1.405       .  A
C1060      C1063   1.485       .  S
C1061      C1062   1.396       .  A
C1061      H1073   1.080       .  S
C1062      H1074   1.083       .  S
C1063      C1064   1.349       .  D
C1063      H1075   1.086       .  S
C1064      C1065   1.483       .  S
C1064      H1076   1.084       .  S
C1065      C1066   1.403       .  A
C1065      C1070   1.407       .  A
C1066      C1067   1.398       .  A
C1066      H1077   1.084       .  S
C1067      C1068   1.403       .  A
C1067      H1078   1.083       .  S
C1068      C1069   1.401       .  A
C1069      C1070   1.396       .  A
C1069      H1079   1.083       .  S
C1070      H1080   1.082       .  S
C1081      C1082   1.409       .  A
C1081      C1086   1.405       .  A
C1082      C1083   1.407       .  A
C1082      H1095   1.083       .  S
C1083      C1084   1.405       .  A
C1083      H1096   1.082       .  S
C1084      C1085   1.406       .  A
C1084      C1087   1.492       .  S
C1085      C1086   1.395       .  A
C1085      H1097   1.083       .  S
C1086      H1098   1.083       .  S
C1087      C1088   1.349       .  D
C1087      H1099   1.085       .  S
C1088      C1089   1.488       .  S
C1088      H1100   1.087       .  S
C1089      C1090   1.403       .  A
C1089      C1094   1.409       .  A
C1090      C1091   1.395       .  A
C1090      H1101   1.084       .  S
C1091      C1092   1.403       .  A
C1091      H1102   1.083       .  S
C1092      C1093   1.408       .  A
C1093      C1094   1.409       .  A
C1093      H1103   1.083       .  S
C1094      H1104   1.082       .  S
C1105      C1106   1.401       .  A
C1105      C1110   1.402       .  A
C1106      C1107   1.397       .  A
C1106      H1119   1.083       .  S
C1107      C1108   1.404       .  A
C1107      H1120   1.084       .  S
C1108      C1109   1.410       .  A
C1108      C1111   1.488       .  S
C1109      C1110   1.401       .  A
C1109      H1121   1.082       .  S
C1110      H1122   1.083       .  S
C1111      C1112   1.349       .  D
C1111      H1123   1.084       .  S
C1112      C1113   1.490       .  S
C1112      H1124   1.085       .  S
C1113      C1114   1.404       .  A
C1113      C1118   1.408       .  A
C1114      C1115   1.398       .  A
C1114      H1125   1.083       .  S
C1115      C1116   1.405       .  A
C1115      H1126   1.083       .  S
C1116      C1117   1.409       .  A
C1117      C1118   1.400       .  A
C1117      H1127   1.083       .  S
C1118      H1128   1.081       .  S
C1129      C1130   1.406       .  A
C1129      C1134   1.408       .  A
C1130      C1131   1.404       .  A
C1130      H1143   1.083       .  S
C1131      C1132   1.407       .  A
C1131      H1144   1.083       .  S
C1132      C1133   1.408       .  A
C1132      C1135   1.497       .  S
C1133      C1134   1.401       .  A
C1133      H1145   1.081       .  S
C1134      H1146   1.083       .  S
C1135      C1136   1.352       .  D
C1135      H1147   1.083       .  S
C1136      C1137   1.499       .  S
C1136      H1148   1.085       .  S
C1137      C1138   1.407       .  A
C1137      C1142   1.412       .  A
C1138      C1139   1.400       .  A
C1138      H1149   1.083       .  S
C1139      C1140   1.402       .  A
C1139      H1150   1.083       .  S
C1140      C1141   1.404       .  A
C1141      C1142   1.405       .  A
C1141      H1151   1.083       .  S
C1142      H1152   1.080       .  S
C1153      C1154   1.405       .  A
C1153      C1158   1.408       .  A
C1154      C1155   1.400       .  A
C1154      H1167   1.083       .  S
C1155      C1156   1.406       .  A
C1155      H1168   1.083       .  S
C1156      C1157   1.412       .  A
C1156      C1159   1.503       .  S
C1157      C1158   1.411       .  A
C1157      H1169   1.081       .  S
C1158      H1170   1.083       .  S
C1159      C1160   1.355       .  D
C1159      H1171   1.084       .  S
C1160      C1161   1.504       .  S
C1160      H1172   1.084       .  S
C1161      C1162   1.409       .  A
C1161      C1166   1.409       .  A
C1162      C1163   1.409       .  A
C1162      H1173   1.083       .  S
C1163      C1164   1.407       .  A
C1163      H1174   1.083       .  S
C1164      C1165   1.407       .  A
C1165      C1166   1.400       .  A
C1165      H1175   1.083       .  S
C1166      H1176   1.080       .  S
C1177      C1178   1.402       .  A
C1177      C1182   1.402       .  A
C1178      C1179   1.401       .  A
C1178      H1191   1.083       .  S
C1179      C1180   1.406       .  A
C1179      H1192   1.083       .  S
C1180      C1181   1.409       .  A
C1180      C1183   1.489       .  S
C1181      C1182   1.398       .  A
C1181      H1193   1.081       .  S
C1182      H1194   1.083       .  S
C1183      C1184   1.346       .  D
C1183      H1195   1.086       .  S
C1184      C1185   1.487       .  S
C1184      H1196   1.086       .  S
C1185      C1186   1.400       .  A
C1185      C1190   1.409       .  A
C1186      C1187   1.396       .  A
C1186      H1197   1.082       .  S
C1187      C1188   1.409       .  A
C1187      H1198   1.083       .  S
C1188      C1189   1.406       .  A
C1189      C1190   1.403       .  A
C1189      H1199   1.083       .  S
C1190      H1200   1.082       .  S
C1201      C1202   1.406       .  A
C1201      C1206   1.407       .  A
C1202      C1203   1.393       .  A
C1202      H1215   1.083       .  S
C1203      C1204   1.401       .  A
C1203      H1216   1.080       .  S
C1204      C1205   1.409       .  A
C1204      C1207   1.487       .  S
C1205      C1206   1.403       .  A
C1205      H1217   1.081       .  S
C1206      H1218   1.083       .  S
C1207      C1208   1.349       .  D
C1207      H1219   1.083       .  S
C1208      C1209   1.493       .  S
C1208      H1220   1.085       .  S
C1209      C1210   1.407       .  A
C1209      C1214   1.409       .  A
C1210      C1211   1.401       .  A
C1210      H1221   1.083       .  S
C1211      C1212   1.402       .  A
C1211      H1222   1.083       .  S
C1212      C1213   1.402       .  A
C1213      C1214   1.396       .  A
C1213      H1223   1.084       .  S
C1214      H1224   1.079       .  S
C1225      C1226   1.405       .  A
C1225      C1230   1.406       .  A
C1226      C1227   1.398       .  A
C1226      H1239   1.083       .  S
C1227      C1228   1.405       .  A
C1227      H1240   1.083       .  S
C1228      C1229   1.408       .  A
C1228      C1231   1.490       .  S
C1229      C1230   1.399       .  A
C1229      H1241   1.080       .  S
C1230      H1242   1.083       .  S
C1231      C1232   1.349       .  D
C1231      H1243   1.087       .  S
C1232      C1233   1.483       .  S
C1232      H1244   1.083       .  S
C1233      C1234   1.402       .  A
C1233      C1238   1.408       .  A
C1234      C1235   1.396       .  A
C1234      H1245   1.084       .  S
C1235      C1236   1.402       .  A
C1235      H1246   1.083       .  S
C1236      C1237   1.402       .  A
C1237      C1238   1.400       .  A
C1237      H1247   1.083       .  S
C1238      H1248   1.083       .  S
