geometry optimzed in LAMMPS
_audit_creation_date              2020-11-30 
_audit_creation_method            'lammps2cif' 
_symmetry_space_group_name_H-M    'P1' 
_symmetry_Int_Tables_number       1 
_symmetry_cell_setting            triclinic 
loop_ 
_symmetry_equiv_pos_as_xyz 
  x,y,z 
_cell_length_a                    35.25209557 
_cell_length_b                    35.202509677194634 
_cell_length_c                    86.59663471763459 
_cell_angle_alpha                 90.01776641660298 
_cell_angle_beta                  89.96616895271572 
_cell_angle_gamma                 120.06193157840553 
loop_ 
_atom_site_label 
_atom_site_type_symbol 
_atom_site_fract_x 
_atom_site_fract_y 
_atom_site_fract_z 
_atom_site_charge 
C1          C  0.66015836  0.08609667  0.71796992     0.80400
N2          N  0.62903745  0.04378271  0.71543820    -0.77900
C3          C  0.63398598  0.01935714  0.70438213     0.82900
N4          N  0.67073468  0.03792773  0.69549993    -0.77800
C5          C  0.70270050  0.08017805  0.69805753     0.83000
N6          N  0.69740239  0.10407596  0.70935830    -0.79500
C7          C  0.78316779  0.09939780  0.66705886     0.80400
N8          N  0.81753522  0.13812557  0.67175646    -0.77900
C9          C  0.81501646  0.15828026  0.68472365     0.82900
N10         N  0.77757652  0.13921787  0.69317035    -0.77800
C11         C  0.74307137  0.10002955  0.68879154     0.83000
N12         N  0.74595721  0.08000376  0.67573304    -0.79500
C13         C  0.48059560  0.75856232  0.83545374     0.80400
N14         N  0.48722572  0.79884583  0.83940372    -0.77900
C15         C  0.51330803  0.82138925  0.85156001     0.82900
N16         N  0.53220728  0.80296534  0.86002968    -0.77800
C17         C  0.52544157  0.76252162  0.85644572     0.83000
N18         N  0.49977258  0.74040567  0.84409339    -0.79500
C19         C  0.58921127  0.74698400  0.88745558     0.80400
N20         N  0.57968883  0.70534873  0.88447601    -0.77900
C21         C  0.55314410  0.68212048  0.87263623     0.82900
N22         N  0.53621253  0.70105504  0.86337844    -0.77800
C23         C  0.54507129  0.74268086  0.86621945     0.83000
N24         N  0.57165624  0.76565240  0.87828493    -0.79500
C25         C  0.83316969  0.43076396  0.49558028     0.80400
N26         N  0.83819967  0.47073570  0.49891723    -0.77900
C27         C  0.86416092  0.49542431  0.51074795     0.82900
N28         N  0.88488236  0.47913124  0.51951285    -0.77800
C29         C  0.88026418  0.43913444  0.51631978     0.83000
N30         N  0.85439475  0.41518040  0.50433102    -0.79500
C31         C  0.94084534  0.42283727  0.54843403     0.80400
N32         N  0.93901770  0.38510509  0.54388378    -0.77900
C33         C  0.91890172  0.36481149  0.53057381     0.82900
N34         N  0.90035209  0.38290279  0.52163923    -0.77800
C35         C  0.90220497  0.42105838  0.52591498     0.83000
N36         N  0.92278217  0.44116357  0.53932110    -0.79500
C37         C  0.44346418  0.42355003  0.99971465     0.80400
N38         N  0.47636473  0.46511347  0.00228048    -0.77900
C39         C  0.47373545  0.48984296  0.01377415     0.82900
N40         N  0.43805443  0.47197927  0.02317929    -0.77800
C41         C  0.40487992  0.43015890  0.02074287     0.83000
N42         N  0.40754876  0.40618838  0.00893354    -0.79500
C43         C  0.33254815  0.41183692  0.05414516     0.80400
N44         N  0.36726341  0.43073308  0.04438161    -0.77900
C45         C  0.36661026  0.41051914  0.03095331     0.82900
N46         N  0.33070684  0.37160610  0.02716167    -0.77800
C47         C  0.29540279  0.35301845  0.03670889     0.83000
N48         N  0.29655612  0.37328792  0.05019077    -0.79500
C49         C  0.98204415  0.76073752  0.37954336     0.80400
N50         N  0.01763802  0.77880068  0.37006933    -0.77900
C51         C  0.01952628  0.75597759  0.35764408     0.82900
N52         N  0.98593344  0.71474611  0.35482842    -0.77800
C53         C  0.95063678  0.69624095  0.36434485     0.83000
N54         N  0.94880673  0.71952446  0.37653426    -0.79500
C55         C  0.09764570  0.76869660  0.32662773     0.80400
N56         N  0.13319985  0.80698180  0.33091748    -0.77900
C57         C  0.13220649  0.82942676  0.34347023     0.82900
N58         N  0.09485282  0.81313274  0.35192999    -0.77800
C59         C  0.05892662  0.77450745  0.34788414     0.83000
N60         N  0.06051860  0.75201130  0.33529314    -0.79500
C61         C  0.15792067  0.08912047  0.16610969     0.80400
N62         N  0.16519016  0.12995185  0.16931324    -0.77900
C63         C  0.19109229  0.15336808  0.18131454     0.82900
N64         N  0.20892478  0.13509091  0.19045687    -0.77800
C65         C  0.20192565  0.09421921  0.18732581     0.83000
N66         N  0.17661867  0.07138081  0.17507810    -0.79500
C67         C  0.26272820  0.07840661  0.21909190     0.80400
N68         N  0.26165516  0.04116413  0.21438510    -0.77900
C69         C  0.24171927  0.02096278  0.20104132     0.82900
N70         N  0.22154429  0.03783468  0.19240092    -0.77800
C71         C  0.22244805  0.07526593  0.19693442     0.83000
N72         N  0.24317129  0.09554160  0.21024885    -0.79500
C73         C  0.06243956  0.68935702  0.83758412     0.80400
N74         N  0.02101651  0.65650593  0.84038886    -0.77900
C75         C  0.99602113  0.66053523  0.85140596     0.82900
N76         N  0.01290882  0.69777117  0.86001032    -0.77800
C77         C  0.05474866  0.73079748  0.85757042     0.83000
N78         N  0.07932204  0.72654176  0.84628448    -0.79500
C79         C  0.06909710  0.80662795  0.88967742     0.80400
N80         N  0.11021850  0.84024609  0.88686040    -0.77900
C81         C  0.13337461  0.83948392  0.87441206     0.82900
N82         N  0.11485319  0.80420082  0.86475693    -0.77800
C83         C  0.07381618  0.77004779  0.86754993     0.83000
N84         N  0.05092996  0.77162946  0.87995083    -0.79500
C85         C  0.71191953  0.64596004  0.66396281     0.80400
N86         N  0.73101215  0.62981141  0.67348581    -0.77900
C87         C  0.71021061  0.60804477  0.68658795     0.82900
N88         N  0.66995124  0.60210170  0.69001792    -0.77800
C89         C  0.65066223  0.61812417  0.68048212     0.83000
N90         N  0.67214720  0.64064170  0.66762415    -0.79500
C91         C  0.73457398  0.56209708  0.72126748     0.80400
N92         N  0.71296060  0.57356225  0.71094574    -0.77900
C93         C  0.73259004  0.59377383  0.69745732     0.82900
N94         N  0.77386378  0.60221136  0.69425188    -0.77800
C95         C  0.79564097  0.59068878  0.70441058     0.83000
N96         N  0.77574500  0.57089549  0.71780080    -0.79500
C97         C  0.38921754  0.35957121  0.50113689     0.80400
N98         N  0.34919192  0.32633321  0.50524318    -0.77900
C99         C  0.32740543  0.32972855  0.51756598     0.82900
N100        N  0.34611200  0.36711797  0.52608350    -0.77800
C101        C  0.38652420  0.40084808  0.52232080     0.83000
N102        N  0.40810574  0.39696290  0.50982991    -0.79500
C103        C  0.40314936  0.48043683  0.55360021     0.80400
N104        N  0.38410890  0.44490094  0.54404596    -0.77900
C105        C  0.40706167  0.44053630  0.53214502     0.82900
N106        N  0.44939173  0.47226078  0.52971755    -0.77800
C107        C  0.46884542  0.50760948  0.53925811     0.83000
N108        N  0.44559101  0.51145653  0.55103504    -0.79500
C109        C  0.38196129  0.98184813  0.99828007     0.80400
N110        N  0.34251003  0.97742085  0.00184541    -0.77900
C111        C  0.31792885  0.95196429  0.01374879     0.82900
N112        N  0.33364988  0.93053436  0.02236891    -0.77800
C113        C  0.37327067  0.93449486  0.01902908     0.83000
N114        N  0.39730474  0.96015677  0.00693130    -0.79500
C115        C  0.38517210  0.86825339  0.05018005     0.80400
N116        N  0.36820306  0.88811444  0.04129661    -0.77900
C117        C  0.39041968  0.91153158  0.02852879     0.82900
N118        N  0.42927340  0.91445619  0.02467368    -0.77800
C119        C  0.44598006  0.89421465  0.03340698     0.83000
N120        N  0.42361054  0.87130812  0.04603863    -0.79500
C121        C  0.05776987  0.20121586  0.38349946     0.80400
N122        N  0.09907424  0.21020254  0.38032933    -0.77900
C123        C  0.12099412  0.23389634  0.36778132     0.82900
N124        N  0.10157926  0.24980384  0.35836060    -0.77800
C125        C  0.06058416  0.24215744  0.36153006     0.83000
N126        N  0.03856527  0.21777141  0.37412157    -0.79500
C127        C  0.04440619  0.29880491  0.32850954     0.80400
N128        N  0.00516242  0.29486881  0.33210650    -0.77900
C129        C  0.98329546  0.27373194  0.34512425     0.82900
N130        N  0.00120908  0.25625929  0.35464579    -0.77800
C131        C  0.04063802  0.26019545  0.35119231     0.83000
N132        N  0.06234069  0.28187665  0.33819547    -0.79500
C133        C  0.73196761  0.13633777  0.22172683     0.80400
N134        N  0.77436950  0.16772279  0.21938120    -0.77900
C135        C  0.79619087  0.16682437  0.20659828     0.82900
N136        N  0.77517063  0.13426140  0.19605276    -0.77800
C137        C  0.73298074  0.10210767  0.19849721     0.83000
N138        N  0.71146109  0.10338816  0.21130478    -0.79500
C139        C  0.70977340  0.03690292  0.16275747     0.80400
N140        N  0.66974873  0.00236448  0.16593848    -0.77900
C141        C  0.64982183  0.99926306  0.17959361     0.82900
N142        N  0.66999571  0.03198713  0.19017347    -0.77800
C143        C  0.71034367  0.06699364  0.18708387     0.83000
N144        N  0.73015013  0.06916720  0.17339975    -0.79500
C145        C  0.51104029  0.70469226  0.32953903     0.80400
N146        N  0.53261079  0.74216617  0.33801633    -0.77900
C147        C  0.55852779  0.74451069  0.35008405     0.82900
N148        N  0.56313647  0.70938795  0.35352870    -0.77800
C149        C  0.54183924  0.67190519  0.34512541     0.83000
N150        N  0.51556738  0.66969591  0.33330099    -0.79500
C151        C  0.62521172  0.82291780  0.38092828     0.80400
N152        N  0.60514697  0.78600588  0.37210732    -0.77900
C153        C  0.58066327  0.78440531  0.35963430     0.82900
N154        N  0.57574707  0.81949028  0.35624640    -0.77800
C155        C  0.59510301  0.85612470  0.36519480     0.83000
N156        N  0.61971088  0.85722999  0.37733966    -0.79500
C157        C  0.25872764  0.14944872  0.72090520     0.80400
N158        N  0.24855808  0.18107881  0.71782775    -0.77900
C159        C  0.22320827  0.17765532  0.70556997     0.82900
N160        N  0.20784617  0.14219335  0.69616647    -0.77800
C161        C  0.21716484  0.10986082  0.69919425     0.83000
N162        N  0.24266523  0.11358288  0.71156269    -0.79500
C163        C  0.15497700  0.03110636  0.66799523     0.80400
N164        N  0.16363844  0.99854960  0.67109288    -0.77900
C165        C  0.18969920  0.00162255  0.68303876     0.82900
N166        N  0.20753626  0.03790848  0.69215270    -0.77800
C167        C  0.19907751  0.07093075  0.68919612     0.83000
N168        N  0.17298793  0.06750547  0.67705715    -0.79500
C169        C  0.44504663  0.96761014  0.49504789     0.80400
N170        N  0.47627700  0.95748508  0.49856404    -0.77900
C171        C  0.47225129  0.93193236  0.51086113     0.82900
N172        N  0.43606157  0.91647640  0.51993587    -0.77800
C173        C  0.40439209  0.92653743  0.51661988     0.83000
N174        N  0.40897525  0.95209538  0.50416479    -0.79500
C175        C  0.32480006  0.87117549  0.54841241     0.80400
N176        N  0.36125500  0.88653169  0.53941159    -0.77900
C177        C  0.36518476  0.90976402  0.52634481     0.82900
N178        N  0.33242279  0.91732812  0.52219996    -0.77800
C179        C  0.29597151  0.90178244  0.53103353     0.83000
N180        N  0.29224706  0.87879777  0.54403236    -0.79500
C181        C  0.66122056  0.54899223  0.21882252     0.80400
N182        N  0.69792253  0.56395685  0.20992351    -0.77900
C183        C  0.70515757  0.59158835  0.19782419     0.82900
N184        N  0.67514434  0.60409503  0.19454478    -0.77800
C185        C  0.63876298  0.58988333  0.20347992     0.83000
N186        N  0.63215333  0.56235812  0.21542634    -0.79500
C187        C  0.78539862  0.64599156  0.16603120     0.80400
N188        N  0.81359940  0.63105150  0.16865538    -0.77900
C189        C  0.80814320  0.60444885  0.18082155     0.82900
N190        N  0.77333103  0.59225913  0.19046832    -0.77800
C191        C  0.74435596  0.60656634  0.18790329     0.83000
N192        N  0.75065329  0.63342822  0.17567906    -0.79500
C193        C  0.83062482  0.36694417  0.99774943     0.80400
N194        N  0.84781125  0.40265178  0.00720001    -0.77900
C195        C  0.87074486  0.40393446  0.02007316     0.82900
N196        N  0.87644872  0.36931786  0.02341591    -0.77800
C197        C  0.85987306  0.33399519  0.01385371     0.83000
N198        N  0.83692629  0.33298397  0.00119130    -0.79500
C199        C  0.92859226  0.47922824  0.05287040     0.80400
N200        N  0.92474426  0.51431485  0.04884473    -0.77900
C201        C  0.90402872  0.51432124  0.03567151     0.82900
N202        N  0.88602710  0.47825324  0.02645851    -0.77800
C203        C  0.88934428  0.44259320  0.03032641     0.83000
N204        N  0.91081430  0.44329438  0.04351008    -0.79500
C205        C  0.10569807  0.30447531  0.82951345     0.80400
N206        N  0.06998189  0.28702316  0.83891185    -0.77900
C207        C  0.06915751  0.26502611  0.85198576     0.82900
N208        N  0.10472282  0.26139333  0.85579256    -0.77800
C209        C  0.14104000  0.27985735  0.84666342     0.83000
N210        N  0.14093385  0.30085595  0.83353063    -0.79500
C211        C  0.99213567  0.20525133  0.88412737     0.80400
N212        N  0.96033488  0.21534332  0.88137523    -0.77900
C213        C  0.96277904  0.24031638  0.86909574     0.82900
N214        N  0.99790502  0.25583851  0.85948939    -0.77800
C215        C  0.03057025  0.24678853  0.86224482     0.83000
N216        N  0.02766149  0.22155154  0.87463042    -0.79500
O217        O  0.56263988  0.18980890  0.81734290    -0.79900
O218        O  0.66392555  0.39391397  0.86841227    -0.81500
O219        O  0.62792509  0.34591315  0.81798066    -0.78500
O220        O  0.68578897  0.28553568  0.84716921    -0.76900
O221        O  0.66252730  0.24154729  0.86856280    -0.78700
O222        O  0.56410939  0.34800882  0.81813491    -0.79600
O223        O  0.68529182  0.37137648  0.84704605    -0.80900
O224        O  0.62671208  0.25599957  0.81680771    -0.81200
Eu225      Eu  0.62635711  0.29881624  0.83925194     2.39200
O226        O  0.62535391  0.29874686  0.86639283    -0.88700
O227        O  0.55402654  0.26284474  0.82988500    -0.92300
C228        C  0.60027851  0.21728438  0.81146329     1.02400
C229        C  0.69198242  0.39935220  0.85783227     1.02200
C230        C  0.60250085  0.35949587  0.81271902     1.02100
C231        C  0.69126629  0.26381215  0.85810660     1.00000
H232        H  0.60601292  0.36586500  0.84482100     0.29700
O233        O  0.59100747  0.33613419  0.84836579    -1.01100
H234        H  0.60461597  0.21097427  0.84475182     0.29800
O235        O  0.58981895  0.22588227  0.84830332    -1.03700
O236        O  0.54517776  0.33751286  0.89692929    -0.80900
O237        O  0.44368859  0.13053020  0.84662410    -0.80400
O238        O  0.53073288  0.37229928  0.84674973    -0.78900
O239        O  0.63506635  0.27133517  0.89683033    -0.82200
O240        O  0.57221853  0.15149316  0.86912143    -0.80100
O241        O  0.47572764  0.25804745  0.81694012    -0.78700
O242        O  0.42229603  0.24134436  0.86845413    -0.80200
O243        O  0.48024293  0.18176780  0.89746288    -0.82100
O244        O  0.44529600  0.28479221  0.84694624    -0.78900
O245        O  0.54565872  0.18299328  0.89786755    -0.81600
O246        O  0.57576949  0.39507652  0.86787063    -0.77300
O247        O  0.47276996  0.19153601  0.81716880    -0.77300
O248        O  0.53020436  0.13012903  0.84725468    -0.77000
O249        O  0.63383983  0.33577220  0.89749494    -0.80500
O250        O  0.48086612  0.27212791  0.89671698    -0.79900
O251        O  0.42270714  0.15272666  0.86820767    -0.78200
Eu252      Eu  0.58990602  0.33588723  0.87548539     2.39800
Eu253      Eu  0.51724075  0.18989278  0.83901901     2.39600
Eu254      Eu  0.51862982  0.29997350  0.83925496     2.38400
Eu255      Eu  0.58891685  0.22622374  0.87552314     2.39900
Eu256      Eu  0.48112623  0.22659503  0.87537516     2.39800
O257        O  0.51681239  0.18997839  0.86619678    -0.92600
O258        O  0.51750972  0.29946052  0.86635674    -0.91500
C259        C  0.50694667  0.31034306  0.90244058     1.02500
C260        C  0.41612011  0.12448348  0.85752938     1.01300
C261        C  0.55306110  0.40054418  0.85731722     1.00600
C262        C  0.64595060  0.30911610  0.90268409     1.02700
C263        C  0.55020051  0.12324911  0.85849733     1.01600
C264        C  0.46273705  0.21938069  0.81148640     1.00400
C265        C  0.41683883  0.26317043  0.85756548     1.00500
C266        C  0.50729953  0.17114701  0.90340247     1.03100
H267        H  0.45210448  0.21235483  0.84448209     0.30500
O268        O  0.48166854  0.22695985  0.84817870    -1.04800
H269        H  0.55323127  0.26318140  0.89591366     0.32500
O270        O  0.55336052  0.26313353  0.88482476    -1.07400
O271        O  0.80134238  0.84778644  0.98513292    -0.79900
O272        O  0.89800998  0.05335444  0.03512828    -0.81500
O273        O  0.76833745  0.93757093  0.01418075    -0.78500
O274        O  0.88747233  0.00622401  0.98522216    -0.76900
O275        O  0.95240953  0.00643739  0.98448292    -0.78700
O276        O  0.74926898  0.89593943  0.03618266    -0.79600
O277        O  0.85257660  0.02829703  0.01414649    -0.80900
O278        O  0.80071751  0.91253176  0.98440165    -0.81200
Eu279      Eu  0.84311085  0.95699685  0.00649442     2.39200
O280        O  0.91575055  0.99607716  0.01519867    -0.88700
O281        O  0.81002062  0.88463619  0.01598036    -0.92300
C282        C  0.78962636  0.87400108  0.97921013     1.02400
C283        C  0.87368176  0.05697907  0.02475051     1.02200
C284        C  0.74134701  0.91568768  0.02516174     1.02100
C285        C  0.92586617  0.01884168  0.97946975     1.00000
H286        H  0.82767432  0.97105451  0.03744498     0.29700
O287        O  0.84371868  0.95718972  0.03366737    -1.01100
H288        H  0.88101115  0.92267048  0.98576884     0.29800
O289        O  0.88121639  0.92276212  0.99703724    -1.03700
O290        O  0.96105994  0.99904924  0.06448627    -0.80900
O291        O  0.86628105  0.79419812  0.01426092    -0.80400
O292        O  0.80908889  0.92875266  0.06510326    -0.78900
O293        O  0.01091772  0.03706641  0.01210772    -0.82200
O294        O  0.95454382  0.91677998  0.98429117    -0.80100
O295        O  0.75303661  0.81067903  0.03602794    -0.78700
O296        O  0.88168315  0.84821908  0.06524102    -0.80200
O297        O  0.99494610  0.90669071  0.03460925    -0.82100
O298        O  0.81463998  0.84343900  0.06552959    -0.78900
O299        O  0.01506173  0.95109199  0.01327016    -0.81600
O300        O  0.87184414  0.99571612  0.06425765    -0.77300
O301        O  0.77574674  0.79048255  0.01432149    -0.77300
O302        O  0.89223092  0.84981600  0.98446566    -0.77000
O303        O  0.98853801  0.05703322  0.03391314    -0.80500
O304        O  0.96478115  0.93619644  0.06458011    -0.79900
O305        O  0.90901345  0.81787025  0.03592768    -0.78200
Eu306      Eu  0.91659517  0.99692262  0.04230128     2.39800
Eu307      Eu  0.84818610  0.85046254  0.00661083     2.39600
Eu308      Eu  0.81058480  0.88494908  0.04321398     2.38400
Eu309      Eu  0.95382584  0.96178167  0.00596318     2.39900
Eu310      Eu  0.92177287  0.89093931  0.04257630     2.39800
O311        O  0.92090438  0.88966577  0.01541588    -0.92600
O312        O  0.88339117  0.92476868  0.05187528    -0.91500
C313        C  0.97411975  0.97379792  0.07029707     1.02500
C314        C  0.88810464  0.78928386  0.02528479     1.01300
C315        C  0.83437746  0.96808920  0.07018336     1.00600
C316        C  0.01617974  0.06460702  0.02287975     1.02700
C317        C  0.92985230  0.87797901  0.97868617     1.01600
C318        C  0.74789000  0.78329849  0.02520272     1.00400
C319        C  0.84350623  0.83492100  0.07117164     1.00500
C320        C  0.02212502  0.92952250  0.02383163     1.03100
H321        H  0.83509809  0.82108152  0.03778386     0.30500
O322        O  0.84879906  0.85080956  0.03388844    -1.04800
H323        H  0.98536505  0.97935786  0.03676056     0.32500
O324        O  0.95537429  0.96319797  0.03317142    -1.07400
O325        O  0.63415630  0.32881107  0.39578706    -0.79900
O326        O  0.53551963  0.12538352  0.34487969    -0.81500
O327        O  0.54845889  0.17330057  0.39514150    -0.78500
O328        O  0.66597789  0.23904744  0.36629309    -0.76900
O329        O  0.68431679  0.28075702  0.34434596    -0.78700
O330        O  0.48226193  0.17056086  0.39617671    -0.79600
O331        O  0.58447043  0.15070532  0.36489104    -0.80900
O332        O  0.63573123  0.26458356  0.39555801    -0.81200
Eu333      Eu  0.59137989  0.22041051  0.37371541     2.39200
O334        O  0.58980154  0.22051315  0.34669761    -0.88700
O335        O  0.55288368  0.25398644  0.38346127    -0.92300
C336        C  0.64704573  0.30285447  0.40107812     1.02400
C337        C  0.56171270  0.12199560  0.35446452     1.02200
C338        C  0.51018067  0.15967625  0.40102932     1.02100
C339        C  0.69236730  0.26047014  0.35513747     1.00000
H340        H  0.50392782  0.15086735  0.36894254     0.29700
O341        O  0.51772757  0.18091475  0.36546774    -1.01100
H342        H  0.65472502  0.30905495  0.36846383     0.29800
O343        O  0.62470903  0.29326895  0.36498497    -1.03700
O344        O  0.47114031  0.18203037  0.31709191    -0.80900
O345        O  0.57254754  0.38660027  0.36765698    -0.80400
O346        O  0.42058196  0.14153972  0.36732614    -0.78900
O347        O  0.62313857  0.24810499  0.31611493    -0.82200
O348        O  0.68169614  0.36695029  0.34479401    -0.80100
O349        O  0.47783777  0.25710772  0.39722489    -0.78700
O350        O  0.43903208  0.27189591  0.34609618    -0.80200
O351        O  0.55516085  0.33301714  0.31604358    -0.82100
O352        O  0.41859661  0.22646724  0.36713093    -0.78900
O353        O  0.62200955  0.33703395  0.31608448    -0.81600
O354        O  0.44276543  0.12252465  0.34527484    -0.77300
O355        O  0.54205528  0.32301089  0.39760586    -0.77300
O356        O  0.65896021  0.38731494  0.36643155    -0.77000
O357        O  0.56015159  0.18122519  0.31657972    -0.80500
O358        O  0.46764335  0.24516639  0.31722591    -0.79900
O359        O  0.52935429  0.36417603  0.34609433    -0.78200
Eu360      Eu  0.51659384  0.18201793  0.33842211     2.39800
Eu361      Eu  0.58657406  0.32709395  0.37476247     2.39600
Eu362      Eu  0.47964893  0.21540182  0.37482146     2.38400
Eu363      Eu  0.62347075  0.29314158  0.33784760     2.39900
Eu364      Eu  0.51339147  0.28989427  0.33877653     2.39800
O365        O  0.58607999  0.32782342  0.34755846    -0.92600
O366        O  0.47955155  0.21703182  0.34777663    -0.91500
C367        C  0.45783112  0.20737410  0.31159799     1.02500
C368        C  0.55171577  0.39284984  0.35659609     1.01300
C369        C  0.41449493  0.11506333  0.35603237     1.00600
C370        C  0.59759388  0.20917144  0.31077427     1.02700
C371        C  0.68700301  0.39443830  0.35557697     1.01600
C372        C  0.50399561  0.29505028  0.40317155     1.00400
C373        C  0.41125641  0.24790107  0.35656723     1.00500
C374        C  0.59373508  0.34620376  0.31038715     1.03100
H375        H  0.49787506  0.30291807  0.36993999     0.30500
O376        O  0.51341094  0.28888723  0.36604560    -1.04800
H377        H  0.55000435  0.25462457  0.31803482     0.32500
O378        O  0.55051946  0.25478493  0.32920494    -1.07400
O379        O  0.35127576  0.70201011  0.67885034    -0.79900
O380        O  0.14718841  0.60042461  0.73045796    -0.81500
O381        O  0.23948588  0.72640378  0.70017734    -0.78500
O382        O  0.29875358  0.66939597  0.72983588    -0.76900
O383        O  0.29641925  0.60325619  0.73109980    -0.78700
O384        O  0.19667139  0.70306026  0.67857965    -0.79600
O385        O  0.21103545  0.66627435  0.73066868    -0.80900
O386        O  0.32865128  0.72526390  0.69976564    -0.81200
Eu387      Eu  0.25443689  0.66777077  0.70779950     2.39200
O388        O  0.21838360  0.59531573  0.71726643    -0.88700
O389        O  0.25421281  0.66656747  0.68058809    -0.92300
C390        C  0.35729354  0.73035539  0.68939450     1.02400
C391        C  0.17325888  0.63818201  0.73642966     1.02200
C392        C  0.21811380  0.73184673  0.68909745     1.02100
C393        C  0.30851939  0.64227020  0.73619715     1.00000
H394        H  0.16680953  0.64514433  0.70260061     0.29700
O395        O  0.18163702  0.63028934  0.69887425    -1.01100
H396        H  0.32040788  0.64561871  0.70273355     0.29800
O397        O  0.29080055  0.63094554  0.69904401    -1.03700
O398        O  0.08643246  0.48509552  0.70102930    -0.80900
O399        O  0.28932557  0.58342815  0.65022606    -0.80400
O400        O  0.10832676  0.61600717  0.67941640    -0.78900
O401        O  0.20832767  0.51388449  0.73024874    -0.82200
O402        O  0.32675427  0.57025132  0.70119134    -0.80100
O403        O  0.22535059  0.67198860  0.64918559    -0.78700
O404        O  0.13765482  0.52135076  0.65000617    -0.80200
O405        O  0.19440420  0.46181410  0.68012698    -0.82100
O406        O  0.13600253  0.58536089  0.64990596    -0.78900
O407        O  0.23746582  0.48408367  0.70174578    -0.81600
O408        O  0.08787781  0.57304035  0.70105645    -0.77300
O409        O  0.29180468  0.67508992  0.64981897    -0.77300
O410        O  0.34698573  0.61187734  0.67924369    -0.77000
O411        O  0.14251837  0.51139521  0.73037075    -0.80500
O412        O  0.10744067  0.46331359  0.67937285    -0.79900
O413        O  0.22528278  0.51736202  0.65057873    -0.78200
Eu414      Eu  0.14593090  0.55762080  0.70820498     2.39800
Eu415      Eu  0.29036706  0.62962577  0.67179957     2.39600
Eu416      Eu  0.18136013  0.62940894  0.67164959     2.38400
Eu417      Eu  0.25432867  0.55856317  0.70857977     2.39900
Eu418      Eu  0.18148793  0.52094576  0.67207663     2.39800
O419        O  0.25393003  0.55759121  0.68135990    -0.92600
O420        O  0.14475735  0.55688578  0.68099787    -0.91500
C421        C  0.07973145  0.45748407  0.69015365     1.02500
C422        C  0.26318767  0.54461370  0.64486625     1.01300
C423        C  0.08110595  0.59455582  0.69041460     1.00600
C424        C  0.17005095  0.50102397  0.73606878     1.02700
C425        C  0.35356192  0.59034164  0.68996313     1.01600
C426        C  0.26409633  0.68467390  0.64378376     1.00400
C427        C  0.12537514  0.54737978  0.64427448     1.00500
C428        C  0.21500774  0.45555767  0.69122812     1.03100
H429        H  0.21789742  0.59279481  0.65146218     0.30500
O430        O  0.21787548  0.59317877  0.66261150    -1.04800
H431        H  0.16678664  0.49173388  0.70305823     0.32500
O432        O  0.18193297  0.52128372  0.69927458    -1.07400
O433        O  0.22668315  0.51188389  0.15195924    -0.79900
O434        O  0.32788563  0.72158771  0.20116606    -0.81500
O435        O  0.28573261  0.66331774  0.14912174    -0.78500
O436        O  0.35228239  0.61574569  0.17919335    -0.76900
O437        O  0.33225768  0.57162188  0.20062738    -0.78700
O438        O  0.22198987  0.66550436  0.15007218    -0.79600
O439        O  0.34751773  0.69886705  0.17935157    -0.80900
O440        O  0.29117933  0.57727095  0.15122381    -0.81200
Eu441      Eu  0.28994962  0.62433058  0.17211305     2.39200
O442        O  0.29193464  0.62617453  0.19927199    -0.88700
O443        O  0.21696786  0.58616042  0.16364628    -0.92300
C444        C  0.26485853  0.53810617  0.14617588     1.02400
C445        C  0.35447610  0.72739100  0.18999269     1.02200
C446        C  0.25867937  0.67455643  0.14366137     1.02100
C447        C  0.35960963  0.59482104  0.18988679     1.00000
H448        H  0.26841229  0.69061141  0.17760144     0.29700
O449        O  0.25428206  0.66097978  0.18157321    -1.01100
H450        H  0.27075950  0.53735188  0.17826766     0.29800
O451        O  0.25542552  0.55222232  0.18189579    -1.03700
O452        O  0.21151060  0.66209278  0.23107691    -0.80900
O453        O  0.10905645  0.45460361  0.18182047    -0.80400
O454        O  0.19446674  0.69577382  0.18059166    -0.78900
O455        O  0.30651076  0.60265896  0.22982165    -0.82200
O456        O  0.24396289  0.48066860  0.20277701    -0.80100
O457        O  0.13873401  0.57794081  0.15079526    -0.78700
O458        O  0.08791361  0.56548796  0.20262808    -0.80200
O459        O  0.15033327  0.50942796  0.23177487    -0.82100
O460        O  0.10824739  0.60735735  0.18069351    -0.78900
O461        O  0.21533875  0.50969184  0.23122455    -0.81600
O462        O  0.23721871  0.71807810  0.20222481    -0.77300
O463        O  0.13862355  0.51293841  0.15071850    -0.77300
O464        O  0.19761543  0.45677445  0.18206687    -0.77000
O465        O  0.30480301  0.66661029  0.23004151    -0.80500
O466        O  0.14681631  0.59713949  0.23137087    -0.79900
O467        O  0.09096363  0.47753625  0.20382138    -0.78200
Eu468      Eu  0.25562306  0.66179044  0.20895220     2.39800
Eu469      Eu  0.18196121  0.51405209  0.17339734     2.39600
Eu470      Eu  0.18131666  0.62278093  0.17293414     2.38400
Eu471      Eu  0.25835868  0.55462610  0.20906559     2.39900
Eu472      Eu  0.14821945  0.55255910  0.20979951     2.39800
O473        O  0.18512162  0.51721496  0.20050675    -0.92600
O474        O  0.18295122  0.62433468  0.20010062    -0.91500
C475        C  0.17324494  0.63568123  0.23680630     1.02500
C476        C  0.08304482  0.44867299  0.19327845     1.01300
C477        C  0.21526320  0.72372936  0.19145608     1.00600
C478        C  0.31850832  0.64126912  0.23528515     1.02700
C479        C  0.22042530  0.45144191  0.19263787     1.01600
C480        C  0.12770105  0.54001592  0.14495448     1.00400
C481        C  0.08107700  0.58635282  0.19170015     1.00500
C482        C  0.17731499  0.49790543  0.23710383     1.03100
H483        H  0.11554745  0.53485950  0.17905091     0.30500
O484        O  0.14556556  0.55034825  0.18254298    -1.04800
H485        H  0.22216215  0.59050367  0.23004253     0.32500
O486        O  0.22130279  0.58985537  0.21872598    -1.07400
O487        O  0.88305195  0.00381479  0.56509685    -0.79900
O488        O  0.78043631  0.79565309  0.51690682    -0.81500
O489        O  0.75882938  0.90825254  0.53676874    -0.78500
O490        O  0.81744884  0.85103577  0.56594267    -0.76900
O491        O  0.88127793  0.84890598  0.56557705    -0.78700
O492        O  0.78053654  0.95175521  0.51521532    -0.79600
O493        O  0.76082414  0.81941415  0.53835968    -0.80900
O494        O  0.81667427  0.94031907  0.56526879    -0.81200
Eu495      Eu  0.81801891  0.89464166  0.54399439     2.39200
O496        O  0.85337696  0.85742332  0.53495707    -0.88700
O497        O  0.85380814  0.96636149  0.53428829    -0.92300
C498        C  0.84437422  0.97846199  0.57070850     1.02400
C499        C  0.75402210  0.79008884  0.52813019     1.02200
C500        C  0.75293360  0.93017774  0.52605478     1.02100
C501        C  0.84346273  0.83848563  0.57132873     1.00000
H502        H  0.78529832  0.87619984  0.51337101     0.29700
O503        O  0.81543046  0.89148281  0.51682137    -1.01100
H504        H  0.89114359  0.93053806  0.56413496     0.29800
O505        O  0.89075578  0.92986677  0.55289324    -1.03700
O506        O  0.89355582  0.85208979  0.48575491    -0.80900
O507        O  0.00104477  0.05807249  0.53619939    -0.80400
O508        O  0.80643064  0.91759988  0.48566658    -0.78900
O509        O  0.90994733  0.81786900  0.53738422    -0.82200
O510        O  0.97226038  0.93778952  0.56477745    -0.80100
O511        O  0.86866400  0.03826312  0.51341113    -0.78700
O512        O  0.95932473  0.00646616  0.48469927    -0.80200
O513        O  0.01964311  0.94708236  0.51325263    -0.82100
O514        O  0.89385998  0.00542292  0.48454310    -0.78900
O515        O  0.99893390  0.90592570  0.53531220    -0.81600
O516        O  0.80649403  0.85272017  0.48589698    -0.77300
O517        O  0.91216382  0.06007383  0.53493855    -0.77300
O518        O  0.97063003  0.00196793  0.56501633    -0.77000
O519        O  0.86718855  0.79698847  0.51562270    -0.80500
O520        O  0.95889763  0.91640688  0.48473204    -0.79900
O521        O  0.02118135  0.03530107  0.51449911    -0.78200
Eu522      Eu  0.85162471  0.85478140  0.50790760     2.39800
Eu523      Eu  0.92646473  0.00157020  0.54305511     2.39600
Eu524      Eu  0.85234641  0.96357362  0.50713850     2.38400
Eu525      Eu  0.92616696  0.89259798  0.54354761     2.39900
Eu526      Eu  0.96097909  0.96267924  0.50663449     2.39800
O527        O  0.96197463  0.96448195  0.53382763    -0.92600
O528        O  0.88790524  0.92651964  0.49799324    -0.91500
C529        C  0.93122618  0.87770809  0.47956938     1.02500
C530        C  0.02862650  0.06298692  0.52551389     1.01300
C531        C  0.79499069  0.87924969  0.48011243     1.00600
C532        C  0.88827642  0.79051955  0.52649638     1.02700
C533        C  0.98315404  0.97582355  0.57038233     1.01600
C534        C  0.89074312  0.06630161  0.52409136     1.00400
C535        C  0.93199412  0.01697776  0.47892772     1.00500
C536        C  0.02587873  0.92548754  0.52404880     1.03100
H537        H  0.94068863  0.02953016  0.51193621     0.30500
O538        O  0.92553135  0.99982901  0.51582955    -1.04800
H539        H  0.93910768  0.87503652  0.51266013     0.32500
O540        O  0.92472607  0.89067569  0.51638594    -1.07400
C541        C  0.98184220  0.07233965  0.94170341    -0.01800
C542        C  0.96965882  0.10447860  0.93965393     0.06800
C543        C  0.94447552  0.10980158  0.95109418    -0.07800
C544        C  0.93050727  0.08306736  0.96428223     0.04200
C545        C  0.94095716  0.04938856  0.96604143    -0.15000
C546        C  0.96743863  0.04518207  0.95477436    -0.08300
C547        C  0.97780357  0.12906573  0.92491542     0.05200
C548        C  0.94182478  0.11761952  0.91524436    -0.09400
C549        C  0.94627034  0.14086098  0.90164036     0.00200
C550        C  0.98751792  0.17680025  0.89748223     0.00000
C551        C  0.02404040  0.18709316  0.90680964    -0.13000
C552        C  0.01947098  0.16376422  0.92051551     0.00500
C553        C  0.90806723  0.12639472  0.89197861     0.39800
C554        C  0.05754123  0.17746166  0.93014686     0.36400
C555        C  0.00749314  0.06540009  0.93023853     0.36200
C556        C  0.90709728  0.09226835  0.97601611     0.36900
N557        N  0.87757940  0.11484088  0.88417989    -0.43900
N558        N  0.08843519  0.18906765  0.93773198    -0.44300
N559        N  0.88877547  0.10039607  0.98536910    -0.41700
N560        N  0.02812694  0.05991180  0.92105335    -0.43100
H561        H  0.97601631  0.01978459  0.95597229     0.13000
H562        H  0.93528720  0.13473490  0.94960185     0.09500
H563        H  0.90992169  0.09045995  0.91843044     0.10600
H564        H  0.05584424  0.21453643  0.90372638     0.16400
C565        C  0.87055985  0.26236109  0.87758695    -0.01800
C566        C  0.85184968  0.25814497  0.86288720     0.06800
C567        C  0.87179733  0.25170723  0.84993614    -0.07800
C568        C  0.90912336  0.24756101  0.85154896     0.04200
C569        C  0.92680826  0.24971414  0.86639099    -0.15000
C570        C  0.90757031  0.25787952  0.87925033    -0.08300
C571        C  0.81047216  0.25870937  0.86096890     0.05200
C572        C  0.81188941  0.29650574  0.85515781    -0.09400
C573        C  0.77367706  0.29925895  0.85412042     0.00200
C574        C  0.73294808  0.26315049  0.85869709     0.00000
C575        C  0.73182679  0.22515888  0.86435132    -0.13000
C576        C  0.77005129  0.22272203  0.86554253     0.00500
C577        C  0.77797843  0.34045338  0.84926138     0.39800
C578        C  0.76699062  0.18298445  0.87153199     0.36400
C579        C  0.85186220  0.27075643  0.89110161     0.36200
C580        C  0.92682715  0.23849172  0.83792182     0.36900
N581        N  0.78213695  0.37383793  0.84545856    -0.43900
N582        N  0.76432218  0.15109503  0.87637363    -0.44300
N583        N  0.94088966  0.23120069  0.82696206    -0.41700
N584        N  0.83662555  0.27746415  0.90185957    -0.43100
H585        H  0.92118307  0.26021645  0.89067431     0.13000
H586        H  0.85737387  0.24861280  0.83861428     0.09500
H587        H  0.84317557  0.32439447  0.85185713     0.10600
H588        H  0.70089737  0.19710764  0.86785357     0.16400
C589        C  0.10002169  0.41727103  0.76712713    -0.01800
C590        C  0.13206775  0.41506422  0.77622787     0.06800
C591        C  0.17625066  0.44155249  0.77230601    -0.07800
C592        C  0.18914135  0.46978624  0.75956407     0.04200
C593        C  0.15732234  0.47224976  0.75018573    -0.15000
C594        C  0.11272714  0.44579466  0.75429853    -0.08300
C595        C  0.12086473  0.38440925  0.78959362     0.05200
C596        C  0.13150137  0.35101897  0.78872599    -0.09400
C597        C  0.12521832  0.32366558  0.80138549     0.00200
C598        C  0.10775386  0.32927738  0.81534198     0.00000
C599        C  0.09587541  0.36187287  0.81608909    -0.13000
C600        C  0.10293363  0.38979132  0.80345381     0.00500
C601        C  0.13653801  0.28972093  0.79966496     0.39800
C602        C  0.09438392  0.42557942  0.80527134     0.36400
C603        C  0.05399271  0.38948314  0.77053529     0.36200
C604        C  0.23560731  0.49565616  0.75657259     0.36900
N605        N  0.14556175  0.26250372  0.79824675    -0.43900
N606        N  0.08792641  0.45456286  0.80662832    -0.44300
N607        N  0.27283888  0.51595346  0.75410708    -0.41700
N608        N  0.01728866  0.36699585  0.77348945    -0.43100
H609        H  0.08761949  0.44658496  0.74731267     0.13000
H610        H  0.20101046  0.44001143  0.77928213     0.09500
H611        H  0.14542511  0.34675072  0.77814196     0.10600
H612        H  0.08315500  0.36700925  0.82680888     0.16400
C613        C  0.31557218  0.26487358  0.87139445    -0.01800
C614        C  0.29624134  0.26669670  0.85735715     0.06800
C615        C  0.31666115  0.26720944  0.84339913    -0.07800
C616        C  0.35577077  0.26612150  0.84317989     0.04200
C617        C  0.37494094  0.26356525  0.85721266    -0.15000
C618        C  0.35412214  0.26246461  0.87120917    -0.08300
C619        C  0.25626923  0.27077552  0.85666155     0.05200
C620        C  0.26044797  0.30985873  0.85090082    -0.09400
C621        C  0.22354753  0.31381685  0.84800334     0.00200
C622        C  0.18101027  0.27807499  0.85095694     0.00000
C623        C  0.17691806  0.23946520  0.85737324    -0.13000
C624        C  0.21409646  0.23541756  0.86006753     0.00500
C625        C  0.23055833  0.35506349  0.84193176     0.39800
C626        C  0.20814713  0.19401481  0.86550247     0.36400
C627        C  0.29824776  0.26829977  0.88609859     0.36200
C628        C  0.37518429  0.26745782  0.82834019     0.36900
N629        N  0.23621711  0.38803018  0.83697094    -0.43900
N630        N  0.20352337  0.16084754  0.86982432    -0.44300
N631        N  0.39098437  0.26895397  0.81647028    -0.41700
N632        N  0.28516229  0.27164078  0.89798107    -0.43100
H633        H  0.36889062  0.26140801  0.88206918     0.13000
H634        H  0.30214918  0.26905884  0.83258230     0.09500
H635        H  0.29282056  0.33711659  0.84827534     0.10600
H636        H  0.14457781  0.21173256  0.85963418     0.16400
C637        C  0.98449618  0.51828314  0.09173546    -0.01800
C638        C  0.01110307  0.49886260  0.09242685     0.06800
C639        C  0.00734394  0.46953088  0.08075396    -0.07800
C640        C  0.97932015  0.46098610  0.06811154     0.04200
C641        C  0.95441167  0.48227952  0.06692335    -0.15000
C642        C  0.95697004  0.51031732  0.07900654    -0.08300
C643        C  0.04343694  0.50914959  0.10510494     0.05200
C644        C  0.03979264  0.47509872  0.11455637    -0.09400
C645        C  0.06791452  0.48376507  0.12719761     0.00200
C646        C  0.10040497  0.52753712  0.13066306     0.00000
C647        C  0.10534002  0.56122630  0.12063288    -0.13000
C648        C  0.07764269  0.55239244  0.10790826     0.00500
C649        C  0.06097171  0.44719935  0.13673114     0.39800
C650        C  0.08483211  0.58824134  0.09788636     0.36400
C651        C  0.98505718  0.54656916  0.10395725     0.36200
C652        C  0.97864450  0.43194333  0.05621767     0.36900
N653        N  0.05501628  0.41748966  0.14422646    -0.43900
N654        N  0.08987453  0.61667887  0.08985204    -0.44300
N655        N  0.97795479  0.40857238  0.04668019    -0.41700
N656        N  0.98629367  0.56949333  0.11377320    -0.43100
H657        H  0.93764950  0.52645423  0.07846654     0.13000
H658        H  0.02737764  0.45416419  0.08130772     0.09500
H659        H  0.01402102  0.44168468  0.11229421     0.10600
H660        H  0.13079096  0.59483369  0.12281023     0.16400
C661        C  0.85892354  0.58672452  0.02308172    -0.01800
C662        C  0.89488858  0.62885085  0.02602352     0.06800
C663        C  0.93458039  0.63326576  0.03107134    -0.07800
C664        C  0.93858161  0.59639369  0.03378033     0.04200
C665        C  0.90220910  0.55395683  0.03139884    -0.15000
C666        C  0.86295106  0.54959006  0.02566218    -0.08300
C667        C  0.89121187  0.66877803  0.02543462     0.05200
C668        C  0.89202710  0.68905012  0.03942565    -0.09400
C669        C  0.89119808  0.72825259  0.03971672     0.00200
C670        C  0.88921310  0.74781414  0.02567758     0.00000
C671        C  0.88830541  0.72721709  0.01162978    -0.13000
C672        C  0.88971831  0.68817029  0.01141915     0.00500
C673        C  0.89138782  0.74663015  0.05465563     0.39800
C674        C  0.89144080  0.66950902  0.99677002     0.36400
C675        C  0.81716902  0.58079220  0.01815630     0.36200
C676        C  0.98050742  0.60319718  0.03893867     0.36900
N677        N  0.89167074  0.76072604  0.06675801    -0.43900
N678        N  0.89309575  0.65451532  0.98506872    -0.44300
N679        N  0.01405300  0.60862152  0.04310559    -0.41700
N680        N  0.78366538  0.57594169  0.01420688    -0.43100
H681        H  0.83487587  0.51714956  0.02383805     0.13000
H682        H  0.96226723  0.66575050  0.03325131     0.09500
H683        H  0.89354853  0.67413415  0.05020243     0.10600
H684        H  0.88749123  0.74215837  0.00077450     0.16400
C685        C  0.90614158  0.17670204  0.02777082    -0.01800
C686        C  0.86685643  0.17574802  0.02393300     0.06800
C687        C  0.82909506  0.13539310  0.02093986    -0.07800
C688        C  0.83035652  0.09622222  0.02128669     0.04200
C689        C  0.86999303  0.09713652  0.02492278    -0.15000
C690        C  0.90733998  0.13757243  0.02841626    -0.08300
C691        C  0.86562875  0.21690461  0.02184934     0.05200
C692        C  0.88253246  0.24068659  0.00814112    -0.09400
C693        C  0.88275483  0.28006683  0.00568237     0.00200
C694        C  0.86563560  0.29608765  0.01704597     0.00000
C695        C  0.84966188  0.27288793  0.03091459    -0.13000
C696        C  0.84914680  0.23323559  0.03333070     0.00500
C697        C  0.90235188  0.30454123  0.99170862     0.39800
C698        C  0.83075960  0.20951129  0.04750169     0.36400
C699        C  0.94579222  0.21767733  0.03079635     0.36200
C700        C  0.79047502  0.05572412  0.01789152     0.36900
N701        N  0.91849745  0.32468878  0.98064999    -0.43900
N702        N  0.81563948  0.19061582  0.05886222    -0.44300
N703        N  0.75848567  0.02343993  0.01506158    -0.41700
N704        N  0.97750346  0.25064393  0.03316337    -0.43100
H705        H  0.93794230  0.13879891  0.03117846     0.13000
H706        H  0.79885384  0.13466211  0.01795721     0.09500
H707        H  0.89571342  0.22846063  0.99937634     0.10600
H708        H  0.83612202  0.28492270  0.03961135     0.16400
C709        C  0.74222724  0.31447418  0.96742302    -0.01800
C710        C  0.75283871  0.34947866  0.95722270     0.06800
C711        C  0.78809568  0.39128608  0.96064627    -0.07800
C712        C  0.81344062  0.39838565  0.97398725     0.04200
C713        C  0.80344485  0.36303720  0.98409743    -0.15000
C714        C  0.76754553  0.32139102  0.98065622    -0.08300
C715        C  0.72765986  0.34243894  0.94280837     0.05200
C716        C  0.69006430  0.34642319  0.94315342    -0.09400
C717        C  0.66330104  0.33643817  0.93009843     0.00200
C718        C  0.67437156  0.32242372  0.91641539     0.00000
C719        C  0.71214485  0.31861994  0.91607817    -0.13000
C720        C  0.73877504  0.32848889  0.92914801     0.00500
C721        C  0.62320140  0.33790384  0.93136300     0.39800
C722        C  0.77663036  0.32294025  0.92845977     0.36400
C723        C  0.70546215  0.27118259  0.96449241     0.36200
C724        C  0.85085970  0.44145798  0.97646963     0.36900
N725        N  0.59092801  0.33878081  0.93244874    -0.43900
N726        N  0.80693510  0.31841947  0.92797093    -0.44300
N727        N  0.88093885  0.47604629  0.97832294    -0.41700
N728        N  0.67584159  0.23662347  0.96213535    -0.43100
H729        H  0.75922176  0.29397552  0.98833975     0.13000
H730        H  0.79624856  0.41818639  0.95273328     0.09500
H731        H  0.68098816  0.35613423  0.95378817     0.10600
H732        H  0.72059164  0.30750827  0.90562289     0.16400
C733        C  0.89614832  0.57620624  0.17142913    -0.01800
C734        C  0.91201993  0.57468899  0.18618203     0.06800
C735        C  0.88938755  0.57611628  0.19927201    -0.07800
C736        C  0.85344089  0.58274276  0.19787605     0.04200
C737        C  0.84039575  0.58925506  0.18310694    -0.15000
C738        C  0.86117628  0.58420891  0.16998227    -0.08300
C739        C  0.95497800  0.57707647  0.18814012     0.05200
C740        C  0.99306909  0.61666452  0.18455035    -0.09400
C741        C  0.03453878  0.62092790  0.18606742     0.00200
C742        C  0.03839149  0.58498144  0.19136207     0.00000
C743        C  0.00021330  0.54576734  0.19536529    -0.13000
C744        C  0.95869612  0.54147002  0.19366199     0.00500
C745        C  0.07245726  0.66270669  0.18227120     0.39800
C746        C  0.92035618  0.49966083  0.19691410     0.36400
C747        C  0.91509228  0.56905038  0.15770780     0.36200
C748        C  0.83254640  0.58521467  0.21185948     0.36900
N749        N  0.10274061  0.69615727  0.17916814    -0.43900
N750        N  0.88964974  0.46597666  0.19941368    -0.44300
N751        N  0.81588871  0.58685560  0.22315945    -0.41700
N752        N  0.93001890  0.56243535  0.14683393    -0.43100
H753        H  0.85049098  0.58714677  0.15852594     0.13000
H754        H  0.90108637  0.57400621  0.21064445     0.09500
H755        H  0.99029209  0.64432921  0.18049001     0.10600
H756        H  0.00267459  0.51779470  0.19922658     0.16400
C757        C  0.85932529  0.78937740  0.10869190    -0.01800
C758        C  0.81641724  0.75572055  0.11214713     0.06800
C759        C  0.78183094  0.74900711  0.10241842    -0.07800
C760        C  0.78951943  0.77477962  0.08916684     0.04200
C761        C  0.83271242  0.80806356  0.08547350    -0.15000
C762        C  0.86711954  0.81505029  0.09546113    -0.08300
C763        C  0.80720343  0.72656017  0.12568380     0.05200
C764        C  0.78641548  0.73177545  0.13863700    -0.09400
C765        C  0.77923428  0.70635310  0.15195436     0.00200
C766        C  0.79189635  0.67400048  0.15226469     0.00000
C767        C  0.81227075  0.66863797  0.13909964    -0.13000
C768        C  0.82007971  0.69462474  0.12592996     0.00500
C769        C  0.76184494  0.71656017  0.16541304     0.39800
C770        C  0.84141729  0.68819840  0.11275284     0.36400
C771        C  0.89588496  0.79818710  0.11855504     0.36200
C772        C  0.75269722  0.76522091  0.07934480     0.36900
N773        N  0.74843663  0.72535358  0.17620981    -0.43900
N774        N  0.85867769  0.68366439  0.10212308    -0.44300
N775        N  0.72322854  0.75775782  0.07147790    -0.41700
N776        N  0.92528106  0.80529017  0.12640359    -0.43100
H777        H  0.90036728  0.84072496  0.09293541     0.13000
H778        H  0.74882524  0.72300267  0.10505662     0.09500
H779        H  0.77704448  0.75679885  0.13850061     0.10600
H780        H  0.82217567  0.64402035  0.13905964     0.16400
C781        C  0.58761363  0.38609543  0.27037686    -0.01800
C782        C  0.62805514  0.42580114  0.26924034     0.06800
C783        C  0.65774497  0.43849406  0.28159903    -0.07800
C784        C  0.64717669  0.41300464  0.29507648     0.04200
C785        C  0.60647493  0.37366516  0.29626568    -0.15000
C786        C  0.57721332  0.36048357  0.28378994    -0.08300
C787        C  0.63735150  0.45687357  0.25615950     0.05200
C788        C  0.60912184  0.47353726  0.25393107    -0.09400
C789        C  0.61576617  0.50300260  0.24199203     0.00200
C790        C  0.65231312  0.51744146  0.23187286     0.00000
C791        C  0.68080189  0.50067976  0.23425280    -0.13000
C792        C  0.67361260  0.47074163  0.24620516     0.00500
C793        C  0.58383699  0.51708882  0.24071066     0.39800
C794        C  0.70327711  0.45392798  0.24777987     0.36400
C795        C  0.55598572  0.37129565  0.25798392     0.36200
C796        C  0.67689712  0.42970958  0.30803057     0.36900
N797        N  0.55756382  0.52753824  0.23991503    -0.43900
N798        N  0.72711678  0.44049481  0.24899437    -0.44300
N799        N  0.70022753  0.44313651  0.31853840    -0.41700
N800        N  0.53060772  0.35972099  0.24806808    -0.43100
H801        H  0.54601671  0.33016811  0.28456050     0.13000
H802        H  0.68835525  0.46944552  0.28100881     0.09500
H803        H  0.58146146  0.46337010  0.26167515     0.10600
H804        H  0.70874642  0.51062861  0.22669568     0.16400
C805        C  0.48185665  0.64386636  0.19383331    -0.01800
C806        C  0.48684056  0.60682346  0.19169173     0.06800
C807        C  0.44975528  0.56613934  0.18820338    -0.07800
C808        C  0.40814258  0.56188648  0.18710683     0.04200
C809        C  0.40303849  0.59842526  0.18997972    -0.15000
C810        C  0.44010835  0.63938545  0.19295848    -0.08300
C811        C  0.52974053  0.60893959  0.19385337     0.05200
C812        C  0.54835770  0.61763037  0.20864310    -0.09400
C813        C  0.58563016  0.61440838  0.21173872     0.00200
C814        C  0.60474372  0.60168776  0.19994061     0.00000
C815        C  0.58777105  0.59572134  0.18489824    -0.13000
C816        C  0.55051772  0.59922704  0.18178960     0.00500
C817        C  0.60393887  0.62496774  0.22709567     0.39800
C818        C  0.53397445  0.59245378  0.16618596     0.36400
C819        C  0.51902631  0.68682975  0.19675111     0.36200
C820        C  0.37168248  0.52074687  0.18195738     0.36900
N821        N  0.61846097  0.63372355  0.23942425    -0.43900
N822        N  0.52084893  0.58720884  0.15366145    -0.44300
N823        N  0.34257635  0.48825014  0.17743429    -0.41700
N824        N  0.54862166  0.72144329  0.19904635    -0.43100
H825        H  0.43631885  0.66780206  0.19479171     0.13000
H826        H  0.45337229  0.53764693  0.18634274     0.09500
H827        H  0.53294968  0.62575515  0.21791924     0.10600
H828        H  0.60243275  0.58643805  0.17570691     0.16400
C829        C  0.25697871  0.72100101  0.60323078    -0.01800
C830        C  0.29740310  0.76020503  0.60166295     0.06800
C831        C  0.32769098  0.77411568  0.61381583    -0.07800
C832        C  0.31781206  0.75002324  0.62760886     0.04200
C833        C  0.27687485  0.71107293  0.62935089    -0.15000
C834        C  0.24693469  0.69692330  0.61700528    -0.08300
C835        C  0.30639156  0.78944986  0.58814651     0.05200
C836        C  0.28547394  0.81426798  0.58745985    -0.09400
C837        C  0.29182593  0.84188597  0.57492860     0.00200
C838        C  0.31959163  0.84484128  0.56255178     0.00000
C839        C  0.34129870  0.82046519  0.56346714    -0.13000
C840        C  0.33461973  0.79266730  0.57606834     0.00500
C841        C  0.27023236  0.86755197  0.57548478     0.39800
C842        C  0.35525694  0.76613787  0.57604921     0.36400
C843        C  0.22538058  0.70529313  0.59081507     0.36200
C844        C  0.34899579  0.76781287  0.64010928     0.36900
N845        N  0.25280407  0.88797392  0.57611195    -0.43900
N846        N  0.37136763  0.74445969  0.57601047    -0.44300
N847        N  0.37423943  0.78283500  0.65003451    -0.41700
N848        N  0.20049848  0.69319352  0.58073307    -0.43100
H849        H  0.21562007  0.66687881  0.61811813     0.13000
H850        H  0.35848340  0.80472985  0.61271736     0.09500
H851        H  0.26398196  0.81199261  0.59683263     0.10600
H852        H  0.36245146  0.82197957  0.55410403     0.16400
C853        C  0.19066543  0.88408411  0.51370893    -0.01800
C854        C  0.18584767  0.91709787  0.52117219     0.06800
C855        C  0.21967051  0.94762041  0.53065521    -0.07800
C856        C  0.25699417  0.94435720  0.53337618     0.04200
C857        C  0.26043034  0.90976917  0.52670854    -0.15000
C858        C  0.22777079  0.88045177  0.51664488    -0.08300
C859        C  0.14440065  0.91814662  0.52061009     0.05200
C860        C  0.10763958  0.88481490  0.52815168    -0.09400
C861        C  0.06900951  0.88658640  0.52954803     0.00200
C862        C  0.06655992  0.92246030  0.52321284     0.00000
C863        C  0.10354907  0.95557049  0.51543465    -0.13000
C864        C  0.14227217  0.95374155  0.51417255     0.00500
C865        C  0.03245575  0.85054976  0.53732559     0.39800
C866        C  0.17943475  0.98847781  0.50616403     0.36400
C867        C  0.15854182  0.85410745  0.50285177     0.36200
C868        C  0.29106810  0.97638339  0.54321290     0.36900
N869        N  0.00339909  0.82156951  0.54361442    -0.43900
N870        N  0.20941043  0.01608778  0.49975919    -0.44300
N871        N  0.31854253  0.00223360  0.55100522    -0.41700
N872        N  0.13351073  0.83017639  0.49394080    -0.43100
H873        H  0.23088453  0.85422504  0.51133537     0.13000
H874        H  0.21622642  0.97321238  0.53632584     0.09500
H875        H  0.10949578  0.85765399  0.53326744     0.10600
H876        H  0.10247030  0.98328070  0.51046294     0.16400
C877        C  0.46084882  0.10525779  0.43924915    -0.01800
C878        C  0.47707249  0.07609018  0.44089040     0.06800
C879        C  0.50191132  0.07252908  0.42892940    -0.07800
C880        C  0.51198721  0.09845311  0.41567594     0.04200
C881        C  0.49763108  0.12935513  0.41433309    -0.15000
C882        C  0.47135252  0.13171003  0.42607124    -0.08300
C883        C  0.46881674  0.04909881  0.45499551     0.05200
C884        C  0.42556183  0.01831951  0.45914036    -0.09400
C885        C  0.41668799  0.99176736  0.47223933     0.00200
C886        C  0.45163622  0.99587323  0.48144857     0.00000
C887        C  0.49487632  0.02659744  0.47717686    -0.13000
C888        C  0.50370059  0.05306703  0.46414592     0.00500
C889        C  0.37176318  0.95900374  0.47540578     0.39800
C890        C  0.54886609  0.08461657  0.46062990     0.36400
C891        C  0.43419285  0.10924916  0.45108274     0.36200
C892        C  0.53520811  0.09092767  0.40338344     0.36900
N893        N  0.33582788  0.93250363  0.47794926    -0.43900
N894        N  0.58513809  0.10975003  0.45790901    -0.44300
N895        N  0.55343828  0.08433124  0.39355841    -0.41700
N896        N  0.41252313  0.11196087  0.46056415    -0.43100
H897        H  0.45972790  0.15490065  0.42511169     0.13000
H898        H  0.51324476  0.04910570  0.42993470     0.09500
H899        H  0.39869425  0.01451141  0.45194723     0.10600
H900        H  0.52211388  0.03020238  0.48410776     0.16400
C901        C  0.63081382  0.88302309  0.52520096    -0.01800
C902        C  0.62732601  0.92044789  0.52212786     0.06800
C903        C  0.66545784  0.96184831  0.52139990    -0.07800
C904        C  0.70688749  0.96615559  0.52309188     0.04200
C905        C  0.71038587  0.92848778  0.52571355    -0.15000
C906        C  0.67219282  0.88739463  0.52707968    -0.08300
C907        C  0.58466885  0.91738665  0.51889327     0.05200
C908        C  0.55415139  0.90702807  0.53086225    -0.09400
C909        C  0.51604110  0.90957961  0.52857909     0.00200
C910        C  0.50803723  0.92226810  0.51395686     0.00000
C911        C  0.53744605  0.92951564  0.50181095    -0.13000
C912        C  0.57561998  0.92788317  0.50418968     0.00500
C913        C  0.48748502  0.90135017  0.54165137     0.39800
C914        C  0.60564884  0.93871072  0.49140025     0.36400
C915        C  0.59280891  0.83958035  0.52561626     0.36200
C916        C  0.74511644  0.00948248  0.52232431     0.36900
N917        N  0.46480533  0.89475647  0.55219501    -0.43900
N918        N  0.62944420  0.94790983  0.48104981    -0.44300
N919        N  0.77567333  0.04424545  0.52175002    -0.41700
N920        N  0.56270492  0.80449854  0.52591204    -0.43100
H921        H  0.67478312  0.85830799  0.52890142     0.13000
H922        H  0.66277352  0.99075995  0.51922085     0.09500
H923        H  0.56111945  0.89883804  0.54218672     0.10600
H924        H  0.53155297  0.93811221  0.49038978     0.16400
C925        C  0.16437144  0.88522913  0.68765287    -0.01800
C926        C  0.20651964  0.89011625  0.68839558     0.06800
C927        C  0.24357608  0.93230755  0.68800534    -0.07800
C928        C  0.23901516  0.96950602  0.68661988     0.04200
C929        C  0.19680141  0.96453330  0.68606316    -0.15000
C930        C  0.15989303  0.92235446  0.68670425    -0.08300
C931        C  0.21232015  0.85133641  0.68860356     0.05200
C932        C  0.20463526  0.82713296  0.67499566    -0.09400
C933        C  0.20761126  0.78900971  0.67473268     0.00200
C934        C  0.21753106  0.77381198  0.68849017     0.00000
C935        C  0.22643168  0.79909496  0.70202624    -0.13000
C936        C  0.22429680  0.83777704  0.70212243     0.00500
C937        C  0.20163911  0.76724857  0.66003549     0.39800
C938        C  0.23401720  0.86281130  0.71623195     0.36400
C939        C  0.12524298  0.84250985  0.68742869     0.36200
C940        C  0.27775955  0.01176366  0.68434869     0.36900
N941        N  0.19705204  0.74987300  0.64826532    -0.43900
N942        N  0.24211708  0.88310637  0.72749755    -0.44300
N943        N  0.30875610  0.04552439  0.68223478    -0.41700
N944        N  0.09365674  0.80848284  0.68710578    -0.43100
H945        H  0.12738698  0.91838662  0.68613920     0.13000
H946        H  0.27601413  0.93598399  0.68816105     0.09500
H947        H  0.19632834  0.83822423  0.66451126     0.10600
H948        H  0.23449558  0.78839980  0.71264373     0.16400
C949        C  0.02544709  0.02236293  0.60992849    -0.01800
C950        C  0.06055021  0.01434300  0.61167465     0.06800
C951        C  0.07111033  0.99478019  0.59958135    -0.07800
C952        C  0.04668215  0.98233252  0.58593597     0.04200
C953        C  0.01130766  0.99013288  0.58419906    -0.15000
C954        C  0.00153674  0.01077367  0.59616427    -0.08300
C955        C  0.08303878  0.02049431  0.62662425     0.05200
C956        C  0.07287421  0.98290237  0.63516865    -0.09400
C957        C  0.09457177  0.98575963  0.64894877     0.00200
C958        C  0.12763206  0.02719326  0.65442323     0.00000
C959        C  0.13675695  0.06511720  0.64606126    -0.13000
C960        C  0.11497878  0.06201765  0.63215662     0.00500
C961        C  0.08161167  0.94542059  0.65719847     0.39800
C962        C  0.12732129  0.10148540  0.62344488     0.36400
C963        C  0.01168714  0.04004007  0.62235239     0.36200
C964        C  0.05865130  0.96166326  0.57396543     0.36900
N965        N  0.07101138  0.91287958  0.66368690    -0.43900
N966        N  0.13751997  0.13325112  0.61649441    -0.44300
N967        N  0.06820622  0.94492337  0.56443818    -0.41700
N968        N  0.00007706  0.05396049  0.63222335    -0.43100
H969        H  0.97399898  0.01624808  0.59500139     0.13000
H970        H  0.09778982  0.98809403  0.60101562     0.09500
H971        H  0.04802280  0.95099763  0.63092470     0.10600
H972        H  0.16217769  0.09704950  0.65003627     0.16400
C973        C  0.22208208  0.27087716  0.68465726    -0.01800
C974        C  0.20955165  0.28958238  0.69657826     0.06800
C975        C  0.19777795  0.26917142  0.71103899    -0.07800
C976        C  0.20028433  0.23150289  0.71400619     0.04200
C977        C  0.21431107  0.21348323  0.70227080    -0.15000
C978        C  0.22390050  0.23266699  0.68753243    -0.08300
C979        C  0.21153233  0.33215901  0.69466673     0.05200
C980        C  0.17582530  0.33338052  0.68815425    -0.09400
C981        C  0.17602414  0.37312770  0.68684841     0.00200
C982        C  0.21282073  0.41254751  0.69208465     0.00000
C983        C  0.24834810  0.41086358  0.69865736    -0.13000
C984        C  0.24793347  0.37118122  0.69999742     0.00500
C985        C  0.13738649  0.37199652  0.68067536     0.39800
C986        C  0.28521880  0.37135190  0.70696160     0.36400
C987        C  0.23538919  0.29161078  0.66971113     0.36200
C988        C  0.18840458  0.21207803  0.72919148     0.36900
N989        N  0.10642566  0.37100364  0.67570805    -0.43900
N990        N  0.31525331  0.37190280  0.71258840    -0.44300
N991        N  0.17883850  0.19663625  0.74137766    -0.41700
N992        N  0.24629420  0.30830530  0.65775101    -0.43100
H993        H  0.23499382  0.21912510  0.67851138     0.13000
H994        H  0.18787550  0.28353184  0.72015782     0.09500
H995        H  0.14750743  0.30310662  0.68431923     0.10600
H996        H  0.27674411  0.44072136  0.70272478     0.16400
C997        C  0.31603427  0.19074422  0.75929972    -0.01800
C998        C  0.34485669  0.17403674  0.75962476     0.06800
C999        C  0.34396843  0.14705266  0.74758727    -0.07800
C1000       C  0.31550533  0.13740559  0.73501992     0.04200
C1001       C  0.28725779  0.15514370  0.73439067    -0.15000
C1002       C  0.28775114  0.18138407  0.74676135    -0.08300
C1003       C  0.37662362  0.18506470  0.77237181     0.05200
C1004       C  0.36695530  0.15454856  0.78424117    -0.09400
C1005       C  0.39492995  0.16479615  0.79696441     0.00200
C1006       C  0.43359341  0.20618624  0.79783950     0.00000
C1007       C  0.44329674  0.23663214  0.78583643    -0.13000
C1008       C  0.41527464  0.22626664  0.77311348     0.00500
C1009       C  0.38175779  0.13336401  0.80939162     0.39800
C1010       C  0.42652434  0.25819065  0.76092540     0.36400
C1011       C  0.31491297  0.21747084  0.77175461     0.36200
C1012       C  0.31758658  0.11074898  0.72278301     0.36900
N1013       N  0.37101762  0.10821720  0.81937542    -0.43900
N1014       N  0.43514917  0.28341428  0.75106501    -0.44300
N1015       N  0.31964503  0.08923387  0.71309544    -0.41700
N1016       N  0.31403483  0.23877708  0.78177480    -0.43100
H1017       H  0.26601220  0.19485084  0.74665790     0.13000
H1018       H  0.36618625  0.13414933  0.74789740     0.09500
H1019       H  0.33687431  0.12308098  0.78373841     0.10600
H1020       H  0.47279604  0.26857303  0.78641479     0.16400
C1021       C  0.61423658  0.05102529  0.35216884    -0.01800
C1022       C  0.57736558  0.00833605  0.35209118     0.06800
C1023       C  0.53527612  0.00317435  0.35197316    -0.07800
C1024       C  0.52948133  0.03975739  0.35246926     0.04200
C1025       C  0.56633158  0.08249077  0.35330735    -0.15000
C1026       C  0.60851851  0.08763722  0.35296878    -0.08300
C1027       C  0.58205025  0.96922553  0.35475530     0.05200
C1028       C  0.59666563  0.96492122  0.36928952    -0.09400
C1029       C  0.59982002  0.92809889  0.37308849     0.00200
C1030       C  0.58981879  0.89483631  0.36189334     0.00000
C1031       C  0.57472790  0.89913054  0.34728231    -0.13000
C1032       C  0.57010411  0.93558651  0.34375577     0.00500
C1033       C  0.61105154  0.92490053  0.38889701     0.39800
C1034       C  0.55278308  0.93767518  0.32888785     0.36400
C1035       C  0.65814527  0.05778447  0.35141720     0.36200
C1036       C  0.48535690  0.03236744  0.35303055     0.36900
N1037       N  0.61967910  0.92252521  0.40162289    -0.43900
N1038       N  0.53846048  0.93914062  0.31702731    -0.44300
N1039       N  0.44992259  0.02626973  0.35347802    -0.41700
N1040       N  0.69320303  0.06293189  0.35069084    -0.43100
H1041       H  0.63704437  0.12032983  0.35326879     0.13000
H1042       H  0.50686411  0.97040385  0.35215426     0.09500
H1043       H  0.60444793  0.99012622  0.37793133     0.10600
H1044       H  0.56636298  0.87398261  0.33859048     0.16400
C1045       C  0.71124008  0.87014282  0.45063676    -0.01800
C1046       C  0.71436885  0.84349312  0.43910986     0.06800
C1047       C  0.74287931  0.82711117  0.44134304    -0.07800
C1048       C  0.76885156  0.83751728  0.45465304     0.04200
C1049       C  0.76652884  0.86501121  0.46613204    -0.15000
C1050       C  0.73712856  0.88059632  0.46396265    -0.08300
C1051       C  0.69189783  0.83623116  0.42396970     0.05200
C1052       C  0.70661923  0.87193216  0.41389131    -0.09400
C1053       C  0.68729702  0.86725438  0.39941153     0.00200
C1054       C  0.65133654  0.82632740  0.39488034     0.00000
C1055       C  0.63782589  0.78997087  0.40470595    -0.13000
C1056       C  0.65804317  0.79460150  0.41913759     0.00500
C1057       C  0.70598843  0.90483379  0.38923295     0.39800
C1058       C  0.64281265  0.75659910  0.42896769     0.36400
C1059       C  0.68181123  0.88727931  0.44905227     0.36200
C1060       C  0.79910700  0.82128626  0.45568282     0.36900
N1061       N  0.72089976  0.93473370  0.38099087    -0.43900
N1062       N  0.63071009  0.72609210  0.43682502    -0.44300
N1063       N  0.82313567  0.80796091  0.45630614    -0.41700
N1064       N  0.65829796  0.90113046  0.44791486    -0.43100
H1065       H  0.73448966  0.90128942  0.47268092     0.13000
H1066       H  0.74592697  0.80727607  0.43237361     0.09500
H1067       H  0.73373694  0.90360429  0.41732223     0.10600
H1068       H  0.61052825  0.75834108  0.40137328     0.16400
C1069       C  0.55976845  0.50012832  0.36923542    -0.01800
C1070       C  0.55733229  0.51808633  0.35501525     0.06800
C1071       C  0.55461620  0.49585693  0.34131031    -0.07800
C1072       C  0.55280527  0.45531679  0.34152981     0.04200
C1073       C  0.55416532  0.43627189  0.35579478    -0.15000
C1074       C  0.55854659  0.45964623  0.36953931    -0.08300
C1075       C  0.55291061  0.55763889  0.35402566     0.05200
C1076       C  0.58992879  0.59940410  0.35561150    -0.09400
C1077       C  0.58698930  0.63723393  0.35317685     0.00200
C1078       C  0.54645571  0.63329814  0.34880665     0.00000
C1079       C  0.50932565  0.59122709  0.34754461    -0.13000
C1080       C  0.51218650  0.55363613  0.35036319     0.00500
C1081       C  0.62647104  0.67939014  0.35455588     0.39800
C1082       C  0.47295531  0.51100370  0.34974296     0.36400
C1083       C  0.56141801  0.52178380  0.38359267     0.36200
C1084       C  0.55007117  0.43472367  0.32682817     0.36900
N1085       N  0.65821879  0.71307475  0.35573075    -0.43900
N1086       N  0.44202272  0.47646832  0.34949681    -0.44300
N1087       N  0.54772281  0.41881699  0.31490893    -0.41700
N1088       N  0.56250474  0.53936548  0.39501921    -0.43100
H1089       H  0.55971684  0.44570952  0.38057187     0.13000
H1090       H  0.55278974  0.50988360  0.33036777     0.09500
H1091       H  0.62128804  0.60237719  0.35841909     0.10600
H1092       H  0.47788261  0.58769665  0.34448716     0.16400
C1093       C  0.41979456  0.65153640  0.30021143    -0.01800
C1094       C  0.43067285  0.68547681  0.28940796     0.06800
C1095       C  0.46616000  0.72749317  0.29257209    -0.07800
C1096       C  0.49194623  0.73546985  0.30588782     0.04200
C1097       C  0.48231544  0.70074070  0.31630269    -0.15000
C1098       C  0.44550063  0.65936409  0.31341193    -0.08300
C1099       C  0.40544023  0.67742918  0.27477355     0.05200
C1100       C  0.38125881  0.69862112  0.27230864    -0.09400
C1101       C  0.35416277  0.68907266  0.25928689     0.00200
C1102       C  0.35020768  0.65687857  0.24849769     0.00000
C1103       C  0.37661654  0.63772803  0.25063188    -0.13000
C1104       C  0.40416337  0.64790857  0.26348592     0.00500
C1105       C  0.33066359  0.71259850  0.25758106     0.39800
C1106       C  0.43062644  0.62734050  0.26488988     0.36400
C1107       C  0.38266033  0.60808176  0.29797135     0.36200
C1108       C  0.52896457  0.77900200  0.30810053     0.36900
N1109       N  0.31260412  0.73225640  0.25626460    -0.43900
N1110       N  0.45162313  0.61064576  0.26604703    -0.44300
N1111       N  0.55840807  0.81411671  0.30972874    -0.41700
N1112       N  0.35322330  0.57304369  0.29621615    -0.43100
H1113       H  0.43702547  0.63260686  0.32143221     0.13000
H1114       H  0.47441443  0.75385728  0.28439975     0.09500
H1115       H  0.38282050  0.72204741  0.28079161     0.10600
H1116       H  0.37559624  0.61431090  0.24226117     0.16400
C1117       C  0.72154791  0.00962424  0.12175776    -0.01800
C1118       C  0.76600028  0.02121582  0.12127796     0.06800
C1119       C  0.79340354  0.04327952  0.13380899    -0.07800
C1120       C  0.77644298  0.05134638  0.14722393     0.04200
C1121       C  0.73121156  0.03691169  0.14813910    -0.15000
C1122       C  0.70450934  0.01726966  0.13517721    -0.08300
C1123       C  0.78381650  0.00750065  0.10839629     0.05200
C1124       C  0.81035629  0.03854503  0.09741299    -0.09400
C1125       C  0.82781207  0.02670160  0.08504777     0.00200
C1126       C  0.81868833  0.98278232  0.08357292     0.00000
C1127       C  0.79263045  0.95192576  0.09487560    -0.13000
C1128       C  0.77554293  0.96409305  0.10730073     0.00500
C1129       C  0.85319904  0.06010077  0.07376562     0.39800
C1130       C  0.75042732  0.93205416  0.11904277     0.36400
C1131       C  0.69258387  0.98946461  0.10877102     0.36200
C1132       C  0.80541136  0.07138582  0.16021202     0.36900
N1133       N  0.87343835  0.08732848  0.06484921    -0.43900
N1134       N  0.73047603  0.90698130  0.12862232    -0.44300
N1135       N  0.82822844  0.08740479  0.17072193    -0.41700
N1136       N  0.66875943  0.97366754  0.09849318    -0.43100
H1137       H  0.66987585  0.00680261  0.13567220     0.13000
H1138       H  0.82769737  0.05242581  0.13334887     0.09500
H1139       H  0.81697727  0.07204827  0.09842062     0.10600
H1140       H  0.78585952  0.91834718  0.09407052     0.16400
C1141       C  0.53199628  0.92935523  0.19230989    -0.01800
C1142       C  0.52222476  0.88727434  0.18731598     0.06800
C1143       C  0.55469149  0.88199615  0.18001311    -0.07800
C1144       C  0.59632176  0.91786319  0.17736240     0.04200
C1145       C  0.60677537  0.96004457  0.18275983    -0.15000
C1146       C  0.57444814  0.96512129  0.19039993    -0.08300
C1147       C  0.47774184  0.84843189  0.18847463     0.05200
C1148       C  0.45563863  0.82860225  0.17475915    -0.09400
C1149       C  0.41517221  0.78983355  0.17502409     0.00200
C1150       C  0.39609689  0.76987049  0.18929250     0.00000
C1151       C  0.41780179  0.79045765  0.20309424    -0.13000
C1152       C  0.45859744  0.82929669  0.20276876     0.00500
C1153       C  0.39351614  0.77208391  0.16045959     0.39800
C1154       C  0.48133951  0.84780133  0.21711075     0.36400
C1155       C  0.49831506  0.93719069  0.19829661     0.36200
C1156       C  0.62686859  0.91009088  0.16870671     0.36900
N1157       N  0.37618846  0.75800832  0.14877794    -0.43900
N1158       N  0.50000749  0.86295398  0.22850347    -0.44300
N1159       N  0.65059832  0.90343383  0.16149836    -0.41700
N1160       N  0.47126186  0.94370694  0.20288868    -0.43100
H1161       H  0.58167803  0.99748861  0.19413238     0.13000
H1162       H  0.54696034  0.84972856  0.17594691     0.09500
H1163       H  0.47034536  0.84343974  0.16375840     0.10600
H1164       H  0.40362388  0.77542901  0.21412195     0.16400
C1165       C  0.70771358  0.16000947  0.26187194    -0.01800
C1166       C  0.66684100  0.15739082  0.25978481     0.06800
C1167       C  0.64604962  0.14514611  0.24539172    -0.07800
C1168       C  0.66584940  0.13622629  0.23297959     0.04200
C1169       C  0.70765787  0.14049465  0.23487874    -0.15000
C1170       C  0.72809206  0.15221482  0.24938572    -0.08300
C1171       C  0.64617011  0.16896167  0.27238547     0.05200
C1172       C  0.65052021  0.21076024  0.27241214    -0.09400
C1173       C  0.63424585  0.22426516  0.28468359     0.00200
C1174       C  0.61276669  0.19535832  0.29712115     0.00000
C1175       C  0.60713947  0.15290382  0.29678581    -0.13000
C1176       C  0.62389371  0.13967446  0.28456510     0.00500
C1177       C  0.63973284  0.26776669  0.28417958     0.39800
C1178       C  0.61823546  0.09611763  0.28471598     0.36400
C1179       C  0.72922180  0.17074271  0.27672330     0.36200
C1180       C  0.64368597  0.12522210  0.21824235     0.36900
N1181       N  0.64423027  0.30265696  0.28384958    -0.43900
N1182       N  0.61384368  0.06126255  0.28469460    -0.44300
N1183       N  0.62600154  0.11638573  0.20642112    -0.41700
N1184       N  0.74600656  0.17883459  0.28870348    -0.43100
H1185       H  0.76007080  0.15534997  0.25094774     0.13000
H1186       H  0.61455169  0.14310492  0.24382560     0.09500
H1187       H  0.66743895  0.23315632  0.26295446     0.10600
H1188       H  0.59076156  0.13049737  0.30629227     0.16400
C1189       C  0.89139560  0.26192810  0.18638280    -0.01800
C1190       C  0.92287995  0.27958866  0.19828822     0.06800
C1191       C  0.91367301  0.25807220  0.21258926    -0.07800
C1192       C  0.87327750  0.22022214  0.21532926     0.04200
C1193       C  0.84110789  0.20335270  0.20361501    -0.15000
C1194       C  0.85097938  0.22390749  0.18909546    -0.08300
C1195       C  0.96398719  0.32240069  0.19663683     0.05200
C1196       C  0.96863794  0.35777858  0.20545422    -0.09400
C1197       C  0.00648206  0.39904244  0.20450272     0.00200
C1198       C  0.04139817  0.40557825  0.19455393     0.00000
C1199       C  0.03649862  0.36961543  0.18578291    -0.13000
C1200       C  0.99823991  0.32841719  0.18672063     0.00500
C1201       C  0.00753575  0.43363496  0.21381831     0.39800
C1202       C  0.99480414  0.29270994  0.17746875     0.36400
C1203       C  0.89905401  0.28332214  0.17155754     0.36200
C1204       C  0.86601900  0.19891886  0.23015924     0.36900
N1205       N  0.00790927  0.46090133  0.22140399    -0.43900
N1206       N  0.99155215  0.26401466  0.16996795    -0.44300
N1207       N  0.86052469  0.18184249  0.24203100    -0.41700
N1208       N  0.90533906  0.30039359  0.15965516    -0.43100
H1209       H  0.82637403  0.21133427  0.18005911     0.13000
H1210       H  0.93795328  0.27138178  0.22172669     0.09500
H1211       H  0.94215988  0.35313081  0.21306077     0.10600
H1212       H  0.06270919  0.37344744  0.17821799     0.16400
C1213       C  0.79878654  0.26937346  0.36855612    -0.01800
C1214       C  0.81706818  0.26595541  0.35450987     0.06800
C1215       C  0.79336544  0.25884044  0.34078018    -0.07800
C1216       C  0.75229352  0.25584707  0.34081123     0.04200
C1217       C  0.73497196  0.26179017  0.35471739    -0.15000
C1218       C  0.75829605  0.26793842  0.36853901    -0.08300
C1219       C  0.86097909  0.27000256  0.35363198     0.05200
C1220       C  0.86763236  0.23697926  0.35986507    -0.09400
C1221       C  0.90772682  0.23810712  0.35784733     0.00200
C1222       C  0.94139540  0.27208523  0.34897532     0.00000
C1223       C  0.93490330  0.30581893  0.34329496    -0.13000
C1224       C  0.89554919  0.30536861  0.34574092     0.00500
C1225       C  0.91306343  0.20381020  0.36481570     0.39800
C1226       C  0.89167918  0.34204104  0.34026894     0.36400
C1227       C  0.82085884  0.27412212  0.38306583     0.36200
C1228       C  0.72716021  0.24298194  0.32669049     0.36900
N1229       N  0.91791962  0.17684281  0.37054600    -0.43900
N1230       N  0.88889333  0.37168668  0.33598775    -0.44300
N1231       N  0.70692396  0.23170178  0.31540490    -0.41700
N1232       N  0.83833601  0.27729644  0.39470240    -0.43100
H1233       H  0.74487671  0.27165239  0.37933709     0.13000
H1234       H  0.80671252  0.25470103  0.33003024     0.09500
H1235       H  0.84121123  0.20995109  0.36610193     0.10600
H1236       H  0.96085959  0.33302482  0.33696816     0.16400
C1237       C  0.13493297  0.38279949  0.30313962    -0.01800
C1238       C  0.11146210  0.38074925  0.28968982     0.06800
C1239       C  0.06733981  0.34804153  0.28836073    -0.07800
C1240       C  0.04568663  0.31923810  0.30058004     0.04200
C1241       C  0.06810085  0.32351153  0.31455111    -0.15000
C1242       C  0.11310272  0.35429113  0.31548717    -0.08300
C1243       C  0.13138559  0.41324056  0.27704195     0.05200
C1244       C  0.15945295  0.40944529  0.26652656    -0.09400
C1245       C  0.17525640  0.43685608  0.25355099     0.00200
C1246       C  0.16327865  0.46924268  0.25102114     0.00000
C1247       C  0.13581896  0.47343671  0.26184583    -0.13000
C1248       C  0.11998049  0.44589529  0.27476271     0.00500
C1249       C  0.20098520  0.42861558  0.24255223     0.39800
C1250       C  0.09219341  0.45177192  0.28560817     0.36400
C1251       C  0.18088767  0.41479445  0.30470584     0.36200
C1252       C  0.00072866  0.28496378  0.29843477     0.36900
N1253       N  0.22126619  0.42128750  0.23379807    -0.43900
N1254       N  0.07008101  0.45648405  0.29436748    -0.44300
N1255       N  0.96481275  0.25715036  0.29682270    -0.41700
N1256       N  0.21778638  0.44027164  0.30595418    -0.43100
H1257       H  0.13077758  0.35734057  0.32608922     0.13000
H1258       H  0.04963001  0.34550679  0.27781265     0.09500
H1259       H  0.16779352  0.38395408  0.26819279     0.10600
H1260       H  0.12656050  0.49826640  0.26020727     0.16400
C1261       C  0.98286014  0.15437880  0.41840993    -0.01800
C1262       C  0.99517666  0.12466106  0.42418712     0.06800
C1263       C  0.02516115  0.11761959  0.41589438    -0.07800
C1264       C  0.04425078  0.14073144  0.40232631     0.04200
C1265       C  0.03439002  0.17289573  0.39697377    -0.15000
C1266       C  0.00282217  0.17859721  0.40496658    -0.08300
C1267       C  0.97766583  0.10019954  0.43884271     0.05200
C1268       C  0.93370986  0.06663960  0.43962865    -0.09400
C1269       C  0.91767634  0.03939756  0.45265148     0.00200
C1270       C  0.94620913  0.04544692  0.46509425     0.00000
C1271       C  0.98982964  0.07979004  0.46440036    -0.13000
C1272       C  0.00557440  0.10725621  0.45151330     0.00500
C1273       C  0.87264768  0.00412195  0.45250719     0.39800
C1274       C  0.05043723  0.14281165  0.45165040     0.36400
C1275       C  0.95034644  0.16085992  0.42620381     0.36200
C1276       C  0.07251705  0.12930980  0.39387829     0.36900
N1277       N  0.83655415  0.97590912  0.45226458    -0.43900
N1278       N  0.08634725  0.17137991  0.45191774    -0.44300
N1279       N  0.09501503  0.12019044  0.38701425    -0.41700
N1280       N  0.92393597  0.16561255  0.43241158    -0.43100
H1281       H  0.99432250  0.20251350  0.40089858     0.13000
H1282       H  0.03350968  0.09363278  0.42004273     0.09500
H1283       H  0.91228842  0.06086714  0.42984273     0.10600
H1284       H  0.01171502  0.08537347  0.47402772     0.16400
C1285       C  0.23277795  0.24904650  0.37533350    -0.01800
C1286       C  0.24695716  0.24617882  0.36041805     0.06800
C1287       C  0.22104736  0.24257696  0.34759471    -0.07800
C1288       C  0.18042000  0.24025118  0.34955726     0.04200
C1289       C  0.16536108  0.24122584  0.36461826    -0.15000
C1290       C  0.19220500  0.24623847  0.37732114    -0.08300
C1291       C  0.28849035  0.24613757  0.35817416     0.05200
C1292       C  0.28944057  0.20750006  0.36113870    -0.09400
C1293       C  0.32886718  0.20700417  0.36047462     0.00200
C1294       C  0.36823758  0.24581197  0.35664904     0.00000
C1295       C  0.36679064  0.28414732  0.35326446    -0.13000
C1296       C  0.32741229  0.28466720  0.35419362     0.00500
C1297       C  0.32772017  0.16615033  0.36361495     0.39800
C1298       C  0.32785954  0.32547889  0.35182418     0.36400
C1299       C  0.25948640  0.25527802  0.38877978     0.36200
C1300       C  0.15401960  0.23453902  0.33605861     0.36900
N1301       N  0.32648051  0.13329556  0.36619619    -0.43900
N1302       N  0.32787431  0.35807711  0.35008677    -0.44300
N1303       N  0.13271890  0.22996797  0.32528424    -0.41700
N1304       N  0.28082421  0.26062202  0.39960477    -0.43100
H1305       H  0.18130901  0.24772204  0.38891044     0.13000
H1306       H  0.23221944  0.24070765  0.33609602     0.09500
H1307       H  0.25935920  0.17786727  0.36425579     0.10600
H1308       H  0.39677966  0.31423458  0.35045989     0.16400
C1309       C  0.63929359  0.91346897  0.03996459    -0.01800
C1310       C  0.61531975  0.90745005  0.02625186     0.06800
C1311       C  0.63333228  0.90518868  0.01208764    -0.07800
C1312       C  0.67437840  0.90795806  0.01145259     0.04200
C1313       C  0.69815914  0.91325363  0.02521132    -0.15000
C1314       C  0.68020316  0.91605066  0.03936410    -0.08300
C1315       C  0.57081732  0.90211664  0.02661143     0.05200
C1316       C  0.56435716  0.93571138  0.02084746    -0.09400
C1317       C  0.52371487  0.93364880  0.02246880     0.00200
C1318       C  0.48844144  0.89685981  0.02971763     0.00000
C1319       C  0.49477442  0.86246614  0.03481472    -0.13000
C1320       C  0.53538017  0.86487612  0.03338915     0.00500
C1321       C  0.52033100  0.97113420  0.01770031     0.39800
C1322       C  0.54018680  0.82911429  0.03928347     0.36400
C1323       C  0.62250450  0.91727673  0.05475556     0.36200
C1324       C  0.69034707  0.90318697  0.99663313     0.36900
N1325       N  0.51758421  0.00126943  0.01401726    -0.43900
N1326       N  0.54416971  0.80065228  0.04410774    -0.44300
N1327       N  0.70323102  0.89931598  0.98478413    -0.41700
N1328       N  0.60866199  0.92010835  0.06654981    -0.43100
H1329       H  0.69834936  0.92064418  0.04997663     0.13000
H1330       H  0.61482528  0.90029282  0.00154717     0.09500
H1331       H  0.59169995  0.96448062  0.01568401     0.10600
H1332       H  0.46807442  0.83378044  0.04027221     0.16400
C1333       C  0.28399939  0.76677306  0.11559619    -0.01800
C1334       C  0.30182282  0.75585666  0.10293839     0.06800
C1335       C  0.30343122  0.71685373  0.10336100    -0.07800
C1336       C  0.28829365  0.68917975  0.11630804     0.04200
C1337       C  0.27134280  0.70058983  0.12917457    -0.15000
C1338       C  0.26881129  0.73910684  0.12852529    -0.08300
C1339       C  0.32165003  0.78610588  0.08961969     0.05200
C1340       C  0.36627295  0.81758453  0.09021900    -0.09400
C1341       C  0.38696853  0.84587021  0.07776122     0.00200
C1342       C  0.36279822  0.84297824  0.06430129     0.00000
C1343       C  0.31771398  0.81231444  0.06392522    -0.13000
C1344       C  0.29715082  0.78371520  0.07641342     0.00500
C1345       C  0.43299863  0.87799992  0.07921230     0.39800
C1346       C  0.25123071  0.75133227  0.07529747     0.36400
C1347       C  0.28254079  0.80702196  0.11579276     0.36200
C1348       C  0.28989400  0.64898607  0.11600650     0.36900
N1349       N  0.46985117  0.90374427  0.08037712    -0.43900
N1350       N  0.21443308  0.72523128  0.07440238    -0.44300
N1351       N  0.29107115  0.61672463  0.11570896    -0.41700
N1352       N  0.28151944  0.83936680  0.11598758    -0.43100
H1353       H  0.25687124  0.74867147  0.13843804     0.13000
H1354       H  0.31712472  0.70836075  0.09363007     0.09500
H1355       H  0.38508352  0.81975795  0.10043005     0.10600
H1356       H  0.29893988  0.80945755  0.05363649     0.16400
C1357       C  0.41981281  0.07344866  0.96899852    -0.01800
C1358       C  0.44636066  0.06521802  0.95900242     0.06800
C1359       C  0.45514028  0.03151385  0.96260481    -0.07800
C1360       C  0.43608659  0.00464904  0.97562788     0.04200
C1361       C  0.40738810  0.01136249  0.98523293    -0.15000
C1362       C  0.40045099  0.04654135  0.98183565    -0.08300
C1363       C  0.46270133  0.08996888  0.94430273     0.05200
C1364       C  0.50697285  0.12201378  0.94286094    -0.09400
C1365       C  0.52246882  0.14826098  0.92957195     0.00200
C1366       C  0.49303390  0.14318192  0.91751980     0.00000
C1367       C  0.44875439  0.11032105  0.91895102    -0.13000
C1368       C  0.43373747  0.08330358  0.93204437     0.00500
C1369       C  0.56846505  0.18086216  0.92890825     0.39800
C1370       C  0.38880688  0.04786442  0.93259449     0.36400
C1371       C  0.41209102  0.10952362  0.96630591     0.36200
C1372       C  0.44505695  0.96944617  0.97829618     0.36900
N1373       N  0.60544693  0.20664971  0.92845749    -0.43900
N1374       N  0.35315255  0.01886644  0.93324207    -0.44300
N1375       N  0.45270273  0.94144858  0.98026988    -0.41700
N1376       N  0.40618659  0.13861013  0.96418027    -0.43100
H1377       H  0.37947098  0.05304440  0.98921238     0.13000
H1378       H  0.47584273  0.02535272  0.95495559     0.09500
H1379       H  0.52932430  0.12698654  0.95226072     0.10600
H1380       H  0.42596134  0.10514689  0.90968713     0.16400
C1381       C  0.21513400  0.95843917  0.00664171    -0.01800
C1382       C  0.19125997  0.94164571  0.02040614     0.06800
C1383       C  0.20837384  0.92696721  0.03208382    -0.07800
C1384       C  0.24925383  0.92955207  0.03033584     0.04200
C1385       C  0.27398420  0.94747587  0.01663017    -0.15000
C1386       C  0.25606088  0.96170960  0.00495065    -0.08300
C1387       C  0.14814970  0.93883915  0.02258494     0.05200
C1388       C  0.11006671  0.89743632  0.02316835    -0.09400
C1389       C  0.06857180  0.89362781  0.02378747     0.00200
C1390       C  0.06496017  0.93178571  0.02367925     0.00000
C1391       C  0.10305276  0.97315942  0.02339986    -0.13000
C1392       C  0.14447724  0.97694478  0.02308621     0.00500
C1393       C  0.03020470  0.85033513  0.02377934     0.39800
C1394       C  0.18286968  0.02018035  0.02341629     0.36400
C1395       C  0.19752531  0.97110141  0.99384541     0.36200
C1396       C  0.26464472  0.91378113  0.04286518     0.36900
N1397       N  0.99944797  0.81566806  0.02375475    -0.43900
N1398       N  0.21383809  0.05468068  0.02369680    -0.44300
N1399       N  0.27664549  0.90083898  0.05292821    -0.41700
N1400       N  0.18316883  0.98101832  0.98362226    -0.43100
H1401       H  0.27361523  0.97483254  0.99420667     0.13000
H1402       H  0.18976766  0.91363135  0.04263602     0.09500
H1403       H  0.11276567  0.86808867  0.02272705     0.10600
H1404       H  0.10040382  0.00256648  0.02358507     0.16400
C1405       C  0.37864700  0.53421027  0.58741886    -0.01800
C1406       C  0.33656560  0.50145996  0.59226813     0.06800
C1407       C  0.31630271  0.46104558  0.58445419    -0.07800
C1408       C  0.33719606  0.45289546  0.57209736     0.04200
C1409       C  0.37876098  0.48633192  0.56679266    -0.15000
C1410       C  0.39873515  0.52683437  0.57470451    -0.08300
C1411       C  0.31366038  0.50929917  0.60541737     0.05200
C1412       C  0.30840964  0.54633094  0.60496536    -0.09400
C1413       C  0.29154169  0.55778553  0.61763818     0.00200
C1414       C  0.27785554  0.53114470  0.63093657     0.00000
C1415       C  0.28055817  0.49268124  0.63114227    -0.13000
C1416       C  0.29897540  0.48198758  0.61863879     0.00500
C1417       C  0.28861528  0.59719355  0.61681250     0.39800
C1418       C  0.30511696  0.44456174  0.62006818     0.36400
C1419       C  0.40288314  0.57502015  0.59578980     0.36200
C1420       C  0.31607895  0.40908825  0.56581553     0.36900
N1421       N  0.28623871  0.62877301  0.61638264    -0.43900
N1422       N  0.31033969  0.41472990  0.62115614    -0.44300
N1423       N  0.29949624  0.37366643  0.56102775    -0.41700
N1424       N  0.42210515  0.60746909  0.60263183    -0.43100
H1425       H  0.43080531  0.55296387  0.57118596     0.13000
H1426       H  0.28415203  0.43544154  0.58815779     0.09500
H1427       H  0.31870736  0.56711887  0.59479900     0.10600
H1428       H  0.27028120  0.47215772  0.64137756     0.16400
C1429       C  0.56679236  0.59934282  0.51910807    -0.01800
C1430       C  0.59594077  0.61974239  0.53156003     0.06800
C1431       C  0.58479231  0.60024332  0.54622261    -0.07800
C1432       C  0.54449856  0.56213547  0.54877594     0.04200
C1433       C  0.51430770  0.54315491  0.53652829    -0.15000
C1434       C  0.52640634  0.56118344  0.52168242    -0.08300
C1435       C  0.63631752  0.66321306  0.53009121     0.05200
C1436       C  0.63776284  0.69910068  0.53770151    -0.09400
C1437       C  0.67560973  0.74054540  0.53746311     0.00200
C1438       C  0.71314449  0.74677383  0.52926825     0.00000
C1439       C  0.71159943  0.71049119  0.52181432    -0.13000
C1440       C  0.67380528  0.66905927  0.52218440     0.00500
C1441       C  0.67458272  0.77567292  0.54575187     0.39800
C1442       C  0.67495363  0.63312754  0.51462729     0.36400
C1443       C  0.57622533  0.61787367  0.50377592     0.36200
C1444       C  0.53514937  0.54268862  0.56398607     0.36900
N1445       N  0.67405379  0.80376028  0.55252526    -0.43900
N1446       N  0.67678864  0.60495652  0.50843853    -0.44300
N1447       N  0.52774062  0.52681169  0.57612499    -0.41700
N1448       N  0.58293584  0.63191105  0.49135979    -0.43100
H1449       H  0.50334306  0.54669449  0.51222504     0.13000
H1450       H  0.60736076  0.61542196  0.55577446     0.09500
H1451       H  0.60909920  0.69455237  0.54395784     0.10600
H1452       H  0.74025636  0.71425737  0.51577804     0.16400
C1453       C  0.23650119  0.21242411  0.52031206    -0.01800
C1454       C  0.20074861  0.21696859  0.52497699     0.06800
C1455       C  0.20720443  0.25861184  0.52852960    -0.07800
C1456       C  0.24848668  0.29614146  0.52670117     0.04200
C1457       C  0.28425999  0.29179406  0.52160936    -0.15000
C1458       C  0.27787894  0.24961705  0.51887516    -0.08300
C1459       C  0.15585837  0.17892933  0.52510910     0.05200
C1460       C  0.13632116  0.16001697  0.53923192    -0.09400
C1461       C  0.09456409  0.12270638  0.53972459     0.00200
C1462       C  0.07201540  0.10347575  0.52577972     0.00000
C1463       C  0.09157756  0.12323772  0.51165283    -0.13000
C1464       C  0.13290839  0.16105885  0.51125107     0.00500
C1465       C  0.07676019  0.10434768  0.55469388     0.39800
C1466       C  0.15089674  0.18183118  0.49657754     0.36400
C1467       C  0.23109446  0.17018178  0.51624497     0.36200
C1468       C  0.25185338  0.33838778  0.52879830     0.36900
N1469       N  0.06316435  0.09040705  0.56682979    -0.43900
N1470       N  0.16553757  0.19908695  0.48492545    -0.44300
N1471       N  0.25368210  0.37189809  0.53043292    -0.41700
N1472       N  0.22675021  0.13645472  0.51280740    -0.43100
H1473       H  0.30508588  0.24576137  0.51506356     0.13000
H1474       H  0.17940762  0.26192587  0.53197461     0.09500
H1475       H  0.15405581  0.17415296  0.54987853     0.10600
H1476       H  0.07426720  0.10947255  0.50090866     0.16400
C1477       C  0.50531638  0.33797239  0.44352647    -0.01800
C1478       C  0.46182286  0.32914438  0.44519337     0.06800
C1479       C  0.43247635  0.30988753  0.43286438    -0.07800
C1480       C  0.44552067  0.29868381  0.41911556     0.04200
C1481       C  0.48905972  0.30725392  0.41742472    -0.15000
C1482       C  0.51862814  0.32723896  0.42969637    -0.08300
C1483       C  0.44533894  0.33738101  0.45994130     0.05200
C1484       C  0.45704728  0.38041621  0.46417524    -0.09400
C1485       C  0.43973703  0.38873207  0.47757356     0.00200
C1486       C  0.41096899  0.35361068  0.48724934     0.00000
C1487       C  0.39973741  0.31056246  0.48294099    -0.13000
C1488       C  0.41615204  0.30226809  0.46940234     0.00500
C1489       C  0.44948841  0.43308051  0.48049191     0.39800
C1490       C  0.40198261  0.25733327  0.46523657     0.36400
C1491       C  0.53649509  0.35696953  0.45597998     0.36200
C1492       C  0.41370323  0.27917360  0.40684594     0.36900
N1493       N  0.45674415  0.46845795  0.48286257    -0.43900
N1494       N  0.39054515  0.22146937  0.46170696    -0.44300
N1495       N  0.38809455  0.26344908  0.39705919    -0.41700
N1496       N  0.56160563  0.37224001  0.46593231    -0.43100
H1497       H  0.55195859  0.33357142  0.42860996     0.13000
H1498       H  0.39902840  0.30313546  0.43408053     0.09500
H1499       H  0.47863952  0.40743236  0.45671296     0.10600
H1500       H  0.37741629  0.28298556  0.49006091     0.16400
C1501       C  0.72105128  0.50075886  0.75858967    -0.01800
C1502       C  0.67575235  0.48110331  0.76150049     0.06800
C1503       C  0.65080641  0.49389934  0.75254879    -0.07800
C1504       C  0.66959106  0.52290268  0.74005221     0.04200
C1505       C  0.71373138  0.53774983  0.73583592    -0.15000
C1506       C  0.73918008  0.52754253  0.74568912    -0.08300
C1507       C  0.65442172  0.44812395  0.77403667     0.05200
C1508       C  0.63022365  0.45509128  0.78542282    -0.09400
C1509       C  0.61205407  0.42630159  0.79796076     0.00200
C1510       C  0.61885485  0.39009454  0.79941357     0.00000
C1511       C  0.64289561  0.38318222  0.78795393    -0.13000
C1512       C  0.65915354  0.41063913  0.77508178     0.00500
C1513       C  0.58891533  0.43646731  0.80950181     0.39800
C1514       C  0.68001673  0.39916609  0.76302996     0.36400
C1515       C  0.75010796  0.49529249  0.76894775     0.36200
C1516       C  0.64306199  0.53760651  0.73226174     0.36900
N1517       N  0.57056101  0.44542957  0.81857353    -0.43900
N1518       N  0.69690623  0.39004223  0.75342964    -0.44300
N1519       N  0.62181321  0.54991127  0.72631455    -0.41700
N1520       N  0.77351784  0.49117807  0.77724915    -0.43100
H1521       H  0.77374675  0.54049513  0.74340368     0.13000
H1522       H  0.61645859  0.48097165  0.75527040     0.09500
H1523       H  0.62639445  0.48375386  0.78470827     0.10600
H1524       H  0.64884828  0.35595693  0.78900029     0.16400
C1525       C  0.90904646  0.60807015  0.71159999    -0.01800
C1526       C  0.92258856  0.60421008  0.69667417     0.06800
C1527       C  0.89591493  0.59967114  0.68398721    -0.07800
C1528       C  0.85533669  0.59741946  0.68606697     0.04200
C1529       C  0.84041147  0.59849966  0.70115369    -0.15000
C1530       C  0.86815426  0.60470211  0.71374490    -0.08300
C1531       C  0.96304762  0.60186553  0.69431318     0.05200
C1532       C  0.96304264  0.56370089  0.69892044    -0.09400
C1533       C  0.00061548  0.56007745  0.69735818     0.00200
C1534       C  0.03953224  0.59552241  0.69121608     0.00000
C1535       C  0.03914925  0.63345552  0.68636820    -0.13000
C1536       C  0.00134363  0.63683102  0.68785879     0.00500
C1537       C  0.99776917  0.51909841  0.70172137     0.39800
C1538       C  0.00301327  0.67689208  0.68307010     0.36400
C1539       C  0.93684838  0.61588081  0.72486017     0.36200
C1540       C  0.82937168  0.59281707  0.67257478     0.36900
N1541       N  0.99559583  0.48630245  0.70517260    -0.43900
N1542       N  0.00466382  0.70912948  0.67917901    -0.44300
N1543       N  0.80857183  0.58965628  0.66180612    -0.41700
N1544       N  0.95936578  0.62253978  0.73544313    -0.43100
H1545       H  0.85781729  0.60677480  0.72536366     0.13000
H1546       H  0.90646917  0.59700520  0.67247013     0.09500
H1547       H  0.93341770  0.53656430  0.70373513     0.10600
H1548       H  0.06876354  0.66100828  0.68174033     0.16400
C1549       C  0.45495821  0.58836535  0.70357688    -0.01800
C1550       C  0.47873496  0.59623471  0.68972335     0.06800
C1551       C  0.45980587  0.59858468  0.67580887    -0.07800
C1552       C  0.41860424  0.59517706  0.67551748     0.04200
C1553       C  0.39538729  0.58959540  0.68948275    -0.15000
C1554       C  0.41360291  0.58506706  0.70336308    -0.08300
C1555       C  0.52390795  0.60337558  0.68922936     0.05200
C1556       C  0.53081165  0.56803293  0.69198103    -0.09400
C1557       C  0.57204009  0.57224950  0.68942540     0.00200
C1558       C  0.60722045  0.61259457  0.68418845     0.00000
C1559       C  0.60041469  0.64819401  0.68180480    -0.13000
C1560       C  0.55929020  0.64395182  0.68435001     0.00500
C1561       C  0.57643419  0.53379980  0.69097437     0.39800
C1562       C  0.55389316  0.68155012  0.68181571     0.36400
C1563       C  0.47304485  0.58542617  0.71818314     0.36200
C1564       C  0.40102793  0.59687408  0.66062926     0.36900
N1565       N  0.58013732  0.50304769  0.69205071    -0.43900
N1566       N  0.54920142  0.71145392  0.67983530    -0.44300
N1567       N  0.38720286  0.59825846  0.64865525    -0.41700
N1568       N  0.48740055  0.58305440  0.72992208    -0.43100
H1569       H  0.39623439  0.58043275  0.71416548     0.13000
H1570       H  0.47769273  0.60361479  0.66509158     0.09500
H1571       H  0.50346060  0.53657674  0.69544961     0.10600
H1572       H  0.62726900  0.67938074  0.67785693     0.16400
C1573       C  0.76348747  0.74226447  0.63695962    -0.01800
C1574       C  0.77688719  0.72577418  0.62458632     0.06800
C1575       C  0.77028077  0.68306541  0.62534681    -0.07800
C1576       C  0.74985123  0.65647910  0.63825282     0.04200
C1577       C  0.73568134  0.67283022  0.65049307    -0.15000
C1578       C  0.74283627  0.71568065  0.64973302    -0.08300
C1579       C  0.79459087  0.75182913  0.61034357     0.05200
C1580       C  0.83933646  0.78296818  0.60948846    -0.09400
C1581       C  0.85618905  0.81165905  0.59688967     0.00200
C1582       C  0.82784176  0.80905177  0.58487773     0.00000
C1583       C  0.78302619  0.77753442  0.58578586    -0.13000
C1584       C  0.76634908  0.74890760  0.59834497     0.00500
C1585       C  0.90189580  0.84526404  0.59711557     0.39800
C1586       C  0.72008170  0.71704517  0.59881515     0.36400
C1587       C  0.76961918  0.78600809  0.63661281     0.36200
C1588       C  0.74131337  0.61186523  0.63826138     0.36900
N1589       N  0.93843634  0.87240688  0.59736453    -0.43900
N1590       N  0.68308288  0.69130721  0.59922116    -0.44300
N1591       N  0.73415834  0.57599081  0.63820479    -0.41700
N1592       N  0.77449418  0.82104648  0.63636870    -0.43100
H1593       H  0.73198980  0.72831612  0.65913896     0.13000
H1594       H  0.78006844  0.67022190  0.61570468     0.09500
H1595       H  0.86081336  0.78570037  0.61891401     0.10600
H1596       H  0.76095499  0.77508247  0.57661113     0.16400
C1597       C  0.23093091  0.92570169  0.85156446    -0.01800
C1598       C  0.25751333  0.95474677  0.86328624     0.06800
C1599       C  0.24444509  0.94419007  0.87872187    -0.07800
C1600       C  0.20514851  0.90642442  0.88265461     0.04200
C1601       C  0.17742979  0.87796310  0.87094211    -0.15000
C1602       C  0.19138035  0.88774936  0.85546959    -0.08300
C1603       C  0.29727200  0.99803378  0.86006923     0.05200
C1604       C  0.29730385  0.03596349  0.86507190    -0.09400
C1605       C  0.33518548  0.07731890  0.86430711     0.00200
C1606       C  0.37428262  0.08167091  0.85800442     0.00000
C1607       C  0.37381863  0.04374647  0.85255679    -0.13000
C1608       C  0.33607343  0.00216603  0.85374797     0.00500
C1609       C  0.33267404  0.11429096  0.87032445     0.39800
C1610       C  0.33881817  0.96420708  0.84917994     0.36400
C1611       C  0.24258341  0.93461839  0.83545565     0.36200
C1612       C  0.19480348  0.89787421  0.89886885     0.36900
N1613       N  0.33035094  0.14353442  0.87534851    -0.43900
N1614       N  0.34127701  0.93393869  0.84546633    -0.44300
N1615       N  0.18698782  0.89150769  0.91190929    -0.41700
N1616       N  0.25170938  0.94112692  0.82250539    -0.43100
H1617       H  0.17066128  0.86647347  0.84631706     0.13000
H1618       H  0.26498182  0.96610535  0.88779875     0.09500
H1619       H  0.26767640  0.03299041  0.87005077     0.10600
H1620       H  0.40359744  0.04628588  0.84792344     0.16400
C1621       C  0.04078592  0.82518642  0.93014964    -0.01800
C1622       C  0.00033892  0.82344579  0.92781708     0.06800
C1623       C  0.98110797  0.81301851  0.91310589    -0.07800
C1624       C  0.00232200  0.80580803  0.90067447     0.04200
C1625       C  0.04374974  0.80950928  0.90284255    -0.15000
C1626       C  0.06240705  0.81878627  0.91767200    -0.08300
C1627       C  0.98002752  0.83653927  0.94027104     0.05200
C1628       C  0.00013144  0.88091209  0.94431013    -0.09400
C1629       C  0.98362864  0.89535306  0.95624496     0.00200
C1630       C  0.94643166  0.86470432  0.96488293     0.00000
C1631       C  0.92565618  0.82009383  0.96044240    -0.13000
C1632       C  0.94193076  0.80603438  0.94819496     0.00500
C1633       C  0.00558122  0.94208719  0.95895978     0.39800
C1634       C  0.91973004  0.76011300  0.94410464     0.36400
C1635       C  0.06033816  0.83330719  0.94532126     0.36200
C1636       C  0.98239481  0.79756862  0.88557644     0.36900
N1637       N  0.02348473  0.97962209  0.96097151    -0.43900
N1638       N  0.90213543  0.72341916  0.94066308    -0.44300
N1639       N  0.96680571  0.79111037  0.87341106    -0.41700
N1640       N  0.07534718  0.83949142  0.95758054    -0.43100
H1641       H  0.09397410  0.82118977  0.91948862     0.13000
H1642       H  0.95017932  0.81195922  0.91122890     0.09500
H1643       H  0.02902352  0.90454572  0.93800904     0.10600
H1644       H  0.89700579  0.79587777  0.96667447     0.16400
C1645       C  0.90283643  0.54465230  0.85638717    -0.01800
C1646       C  0.86630594  0.55072206  0.85711215     0.06800
C1647       C  0.87243299  0.59318224  0.85637287    -0.07800
C1648       C  0.91446894  0.62966288  0.85467198     0.04200
C1649       C  0.95119151  0.62373351  0.85403314    -0.15000
C1650       C  0.94487501  0.58109095  0.85488153    -0.08300
C1651       C  0.82116719  0.51299931  0.85724797     0.05200
C1652       C  0.79711446  0.50117365  0.87102312    -0.09400
C1653       C  0.75439873  0.46516812  0.87151026     0.00200
C1654       C  0.73533333  0.44024038  0.85793795     0.00000
C1655       C  0.75936578  0.45344258  0.84407039    -0.13000
C1656       C  0.80188703  0.48928317  0.84365480     0.00500
C1657       C  0.73167179  0.45429770  0.88615090     0.39800
C1658       C  0.82529787  0.50111330  0.82915343     0.36400
C1659       C  0.89779688  0.50132526  0.85680626     0.36200
C1660       C  0.91848491  0.67209326  0.85228917     0.36900
N1661       N  0.71333808  0.44576554  0.89785448    -0.43900
N1662       N  0.84419231  0.51062418  0.81756388    -0.44300
N1663       N  0.92115783  0.70580475  0.85017397    -0.41700
N1664       N  0.89374665  0.46660911  0.85706667    -0.43100
H1665       H  0.97287998  0.57622120  0.85419087     0.13000
H1666       H  0.84410883  0.59760256  0.85650245     0.09500
H1667       H  0.81199451  0.51985457  0.88144533     0.10600
H1668       H  0.74513251  0.43541946  0.83348075     0.16400
C1669       C  0.17832170  0.68415266  0.77657937    -0.01800
C1670       C  0.13365887  0.66328232  0.78084285     0.06800
C1671       C  0.10193087  0.63648852  0.76999772    -0.07800
C1672       C  0.11385093  0.62878373  0.75540668     0.04200
C1673       C  0.15879170  0.64880073  0.75120845    -0.15000
C1674       C  0.19047557  0.67705563  0.76188129    -0.08300
C1675       C  0.11916009  0.66988382  0.79634550     0.05200
C1676       C  0.13187705  0.71269341  0.80126829    -0.09400
C1677       C  0.11629083  0.72032130  0.81515826     0.00200
C1678       C  0.08687774  0.68451619  0.82442650     0.00000
C1679       C  0.07585349  0.64184433  0.81984238    -0.13000
C1680       C  0.09116784  0.63420151  0.80593656     0.00500
C1681       C  0.12866197  0.76497014  0.81896942     0.39800
C1682       C  0.07614648  0.58921514  0.80161029     0.36400
C1683       C  0.21230159  0.71188140  0.78731313     0.36200
C1684       C  0.07885439  0.60040350  0.74504284     0.36900
N1685       N  0.13843268  0.80071793  0.82205059    -0.43900
N1686       N  0.06320313  0.55296702  0.79820846    -0.44300
N1687       N  0.05065777  0.57743009  0.73685345    -0.41700
N1688       N  0.23902930  0.73427274  0.79605196    -0.43100
H1689       H  0.22498234  0.69249286  0.75896984     0.13000
H1690       H  0.06747169  0.62140797  0.77296010     0.09500
H1691       H  0.15274195  0.74030147  0.79390327     0.10600
H1692       H  0.05368199  0.61396975  0.82688620     0.16400
C1693       C  0.31357194  0.09045205  0.25843315    -0.01800
C1694       C  0.33717264  0.13630543  0.26041352     0.06800
C1695       C  0.33286688  0.16325348  0.24948877    -0.07800
C1696       C  0.30663795  0.14526738  0.23636074     0.04200
C1697       C  0.28563562  0.09942725  0.23371587    -0.15000
C1698       C  0.28865000  0.07250928  0.24509935    -0.08300
C1699       C  0.36861196  0.15660419  0.27329940     0.05200
C1700       C  0.40365891  0.14864070  0.27427755    -0.09400
C1701       C  0.43314096  0.16494741  0.28655484     0.00200
C1702       C  0.42880493  0.19142294  0.29793259     0.00000
C1703       C  0.39441321  0.20061411  0.29665355    -0.13000
C1704       C  0.36385418  0.18266768  0.28462069     0.00500
C1705       C  0.46695218  0.15320384  0.28715920     0.39800
C1706       C  0.32618686  0.18859729  0.28472171     0.36400
C1707       C  0.31424772  0.06127824  0.27003406     0.36200
C1708       C  0.30269349  0.17498805  0.22589059     0.36900
N1709       N  0.49342770  0.14296468  0.28757724    -0.43900
N1710       N  0.29557262  0.19264719  0.28485156    -0.44300
N1711       N  0.29939180  0.19936380  0.21781446    -0.41700
N1712       N  0.31487710  0.03826599  0.27944679    -0.43100
H1713       H  0.27160079  0.03718082  0.24357127     0.13000
H1714       H  0.35070682  0.19856266  0.25110553     0.09500
H1715       H  0.40739728  0.12867484  0.26552829     0.10600
H1716       H  0.39013754  0.22005348  0.30546814     0.16400
C1717       C  0.22815142  0.83107885  0.20603843    -0.01800
C1718       C  0.22381712  0.85044613  0.19236151     0.06800
C1719       C  0.21407587  0.82683297  0.17850021    -0.07800
C1720       C  0.20912138  0.78483676  0.17800123     0.04200
C1721       C  0.21513908  0.76596291  0.19156466    -0.15000
C1722       C  0.22395000  0.78940890  0.20552751    -0.08300
C1723       C  0.23018700  0.89556575  0.19235889     0.05200
C1724       C  0.26961563  0.93017451  0.19811555    -0.09400
C1725       C  0.27494598  0.97189491  0.20031908     0.00200
C1726       C  0.24046899  0.97977799  0.19651769     0.00000
C1727       C  0.20268421  0.94630153  0.18939178    -0.13000
C1728       C  0.19722931  0.90436741  0.18732539     0.00500
C1729       C  0.31598759  0.00584151  0.20663826     0.39800
C1730       C  0.15675482  0.87060432  0.18064931     0.36400
C1731       C  0.23705491  0.85340098  0.22074453     0.36200
C1732       C  0.19853802  0.76257098  0.16330328     0.36900
N1733       N  0.34864623  0.03317762  0.21177523    -0.43900
N1734       N  0.12449251  0.84368355  0.17514565    -0.44300
N1735       N  0.18915683  0.74447500  0.15156109    -0.41700
N1736       N  0.24456972  0.87171986  0.23243612    -0.43100
H1737       H  0.22790597  0.77532326  0.21612216     0.13000
H1738       H  0.21095692  0.84158319  0.16793583     0.09500
H1739       H  0.29586486  0.92415635  0.20136492     0.10600
H1740       H  0.17633214  0.95216973  0.18616518     0.16400
C1741       C  0.06145270  0.04466161  0.13915955    -0.01800
C1742       C  0.07473098  0.02691012  0.12714465     0.06800
C1743       C  0.11363422  0.02554590  0.12869440    -0.07800
C1744       C  0.14026527  0.04331931  0.14175477     0.04200
C1745       C  0.12866865  0.06434468  0.15318574    -0.15000
C1746       C  0.08881452  0.06396653  0.15187619    -0.08300
C1747       C  0.04993906  0.01267118  0.11246940     0.05200
C1748       C  0.04739922  0.04425268  0.10343526    -0.09400
C1749       C  0.02311551  0.03273358  0.08976545     0.00200
C1750       C  0.00120848  0.98843484  0.08465096     0.00000
C1751       C  0.00462553  0.95694192  0.09372442    -0.13000
C1752       C  0.02856125  0.96871485  0.10754325     0.00500
C1753       C  0.02113881  0.06745333  0.08159997     0.39800
C1754       C  0.02981250  0.93518785  0.11676973     0.36400
C1755       C  0.01956670  0.04274623  0.13877316     0.36200
C1756       C  0.17979002  0.04077379  0.14280126     0.36900
N1757       N  0.01947941  0.09573398  0.07542603    -0.43900
N1758       N  0.03122374  0.90880087  0.12431916    -0.44300
N1759       N  0.21108350  0.03798213  0.14353472    -0.41700
N1760       N  0.98577522  0.04071440  0.13853171    -0.43100
H1761       H  0.07903377  0.07885555  0.16084396     0.13000
H1762       H  0.12365208  0.01145861  0.11952038     0.09500
H1763       H  0.06415594  0.07819848  0.10724031     0.10600
H1764       H  0.98780796  0.92276823  0.09023154     0.16400
C1765       C  0.20574633  0.25384897  0.20268796    -0.01800
C1766       C  0.20972403  0.28182044  0.19035386     0.06800
C1767       C  0.21082488  0.26862343  0.17517288    -0.07800
C1768       C  0.20579124  0.22748354  0.17202262     0.04200
C1769       C  0.19983277  0.19848624  0.18427344    -0.15000
C1770       C  0.20116776  0.21260482  0.19956105    -0.08300
C1771       C  0.21059744  0.32408476  0.19258568     0.05200
C1772       C  0.24648058  0.35938493  0.19988642    -0.09400
C1773       C  0.25060858  0.40121197  0.20025540     0.00200
C1774       C  0.21822163  0.40808187  0.19315747     0.00000
C1775       C  0.18191043  0.37213922  0.18624850    -0.13000
C1776       C  0.17778568  0.33064126  0.18598262     0.00500
C1777       C  0.28899948  0.43641974  0.20755906     0.39800
C1778       C  0.13930710  0.29512360  0.17884094     0.36400
C1779       C  0.20394019  0.26559158  0.21853057     0.36200
C1780       C  0.20831490  0.21669278  0.15610384     0.36900
N1781       N  0.31954774  0.46469416  0.21348611    -0.43900
N1782       N  0.10846520  0.26674343  0.17310663    -0.44300
N1783       N  0.21063118  0.20845638  0.14332246    -0.41700
N1784       N  0.20228062  0.27454205  0.23127800    -0.43100
H1785       H  0.19697865  0.19075226  0.20905853     0.13000
H1786       H  0.21491861  0.29047811  0.16567776     0.09500
H1787       H  0.27198617  0.35456434  0.20486465     0.10600
H1788       H  0.15624414  0.37625477  0.18101843     0.16400
C1789       C  0.25281900  0.91018384  0.34804866    -0.01800
C1790       C  0.25287981  0.94772317  0.35365412     0.06800
C1791       C  0.21294272  0.94546768  0.35716087    -0.07800
C1792       C  0.17293856  0.90688812  0.35447082     0.04200
C1793       C  0.17281363  0.86982187  0.34810901    -0.15000
C1794       C  0.21305906  0.87179059  0.34530600    -0.08300
C1795       C  0.29401502  0.99057250  0.35462713     0.05200
C1796       C  0.31198152  0.01404423  0.34097151    -0.09400
C1797       C  0.35070025  0.05474431  0.34119602     0.00200
C1798       C  0.37225181  0.07285657  0.35537246     0.00000
C1799       C  0.35366254  0.04939132  0.36910307    -0.13000
C1800       C  0.31519243  0.00818634  0.36877338     0.00500
C1801       C  0.36644062  0.07767030  0.32671895     0.39800
C1802       C  0.29926928  0.98318039  0.38285929     0.36400
C1803       C  0.29315774  0.91040067  0.34491811     0.36200
C1804       C  0.13288560  0.90741570  0.35740535     0.36900
N1805       N  0.37844493  0.09555436  0.31500312    -0.43900
N1806       N  0.28651141  0.96237341  0.39399838    -0.44300
N1807       N  0.10097558  0.90822094  0.35976442    -0.41700
N1808       N  0.32538141  0.91031373  0.34245555    -0.43100
H1809       H  0.21351754  0.84330703  0.34075450     0.13000
H1810       H  0.21305172  0.97445432  0.36147314     0.09500
H1811       H  0.29552217  0.00045918  0.33007740     0.10600
H1812       H  0.37000884  0.06254480  0.38003584     0.16400
C1813       C  0.09770323  0.67904653  0.30241074    -0.01800
C1814       C  0.12249666  0.70316358  0.28945145     0.06800
C1815       C  0.13432526  0.74740763  0.28808507    -0.07800
C1816       C  0.12390413  0.76837605  0.29963689     0.04200
C1817       C  0.10133652  0.74512043  0.31303847    -0.15000
C1818       C  0.08716815  0.70010951  0.31405675    -0.08300
C1819       C  0.13579776  0.68328098  0.27688619     0.05200
C1820       C  0.10336822  0.65002832  0.26772476    -0.09400
C1821       C  0.11446246  0.63394311  0.25467456     0.00200
C1822       C  0.15912896  0.65078530  0.25067326     0.00000
C1823       C  0.19142642  0.68366602  0.26006509    -0.13000
C1824       C  0.18028158  0.70006994  0.27296031     0.00500
C1825       C  0.07913649  0.60208598  0.24518476     0.39800
C1826       C  0.21524625  0.73462086  0.28183630     0.36400
C1827       C  0.08482341  0.63343482  0.30440470     0.36200
C1828       C  0.13595254  0.81366988  0.29727109     0.36900
N1829       N  0.05085368  0.57669620  0.23753295    -0.43900
N1830       N  0.24347318  0.76255474  0.28878860    -0.44300
N1831       N  0.14535278  0.84986463  0.29531214    -0.41700
N1832       N  0.07458069  0.59689879  0.30604280    -0.43100
H1833       H  0.06982113  0.68193196  0.32428890     0.13000
H1834       H  0.15200423  0.76574285  0.27791628     0.09500
H1835       H  0.06912614  0.63777880  0.27044503     0.10600
H1836       H  0.22571076  0.69696643  0.25727834     0.16400
C1837       C  0.93115225  0.79354263  0.41165032    -0.01800
C1838       C  0.96721341  0.81953454  0.42130158     0.06800
C1839       C  0.00928824  0.82964507  0.41647017    -0.07800
C1840       C  0.01558242  0.81304648  0.40252775     0.04200
C1841       C  0.97894276  0.78429273  0.39338822    -0.15000
C1842       C  0.93708901  0.77555230  0.39806964    -0.08300
C1843       C  0.96105470  0.83513182  0.43662375     0.05200
C1844       C  0.93422132  0.80397414  0.44765008    -0.09400
C1845       C  0.92462383  0.81677666  0.46176992     0.00200
C1846       C  0.94289323  0.86201039  0.46528699     0.00000
C1847       C  0.97120033  0.89311069  0.45443597    -0.13000
C1848       C  0.97992011  0.88010095  0.44017285     0.00500
C1849       C  0.89535193  0.78250348  0.47220574     0.39800
C1850       C  0.00611364  0.91347332  0.42899666     0.36400
C1851       C  0.88797274  0.78632420  0.41517252     0.36200
C1852       C  0.05986511  0.82538785  0.39824427     0.36900
N1853       N  0.87136599  0.75489994  0.48040517    -0.43900
N1854       N  0.02688209  0.94020079  0.41999224    -0.44300
N1855       N  0.09566372  0.83609269  0.39493981    -0.41700
N1856       N  0.85359658  0.78119072  0.41794901    -0.43100
H1857       H  0.90873975  0.75475904  0.39100362     0.13000
H1858       H  0.03727257  0.85013120  0.42373194     0.09500
H1859       H  0.91988889  0.76931353  0.44504231     0.10600
H1860       H  0.98513678  0.92784154  0.45679157     0.16400
C1861       C  0.86360388  0.59214875  0.34507563    -0.01800
C1862       C  0.84458509  0.56435597  0.35790964     0.06800
C1863       C  0.86223036  0.57893925  0.37264243    -0.07800
C1864       C  0.89752009  0.62134503  0.37484301     0.04200
C1865       C  0.91558009  0.65012358  0.36212675    -0.15000
C1866       C  0.89918993  0.63470940  0.34723524    -0.08300
C1867       C  0.80414213  0.52117444  0.35649878     0.05200
C1868       C  0.80683086  0.48439518  0.35196521    -0.09400
C1869       C  0.76910386  0.44276237  0.35130341     0.00200
C1870       C  0.72790047  0.43765534  0.35546459     0.00000
C1871       C  0.72551423  0.47486880  0.35978101    -0.13000
C1872       C  0.76311576  0.51636321  0.36025300     0.00500
C1873       C  0.77399482  0.40593751  0.34677187     0.39800
C1874       C  0.75908573  0.55374481  0.36467348     0.36400
C1875       C  0.84578043  0.57811831  0.32976949     0.36200
C1876       C  0.91526868  0.63427597  0.39022002     0.36900
N1877       N  0.77813605  0.37663629  0.34304596    -0.43900
N1878       N  0.75630292  0.58396254  0.36820421    -0.44300
N1879       N  0.92993907  0.64514792  0.40245895    -0.41700
N1880       N  0.83109775  0.56653817  0.31756803    -0.43100
H1881       H  0.91310122  0.65640012  0.33738426     0.13000
H1882       H  0.84780549  0.55731322  0.38248777     0.09500
H1883       H  0.83852840  0.48820313  0.34912603     0.10600
H1884       H  0.69408818  0.47156924  0.36273109     0.16400
C1885       C  0.11374888  0.16651141  0.03875282    -0.01800
C1886       C  0.13530264  0.18995344  0.02531309     0.06800
C1887       C  0.11836792  0.17149953  0.01080411    -0.07800
C1888       C  0.07967799  0.13063647  0.00956697     0.04200
C1889       C  0.05744349  0.10762845  0.02310619    -0.15000
C1890       C  0.07519294  0.12604695  0.03754587    -0.08300
C1891       C  0.17595853  0.23333734  0.02638590     0.05200
C1892       C  0.21639991  0.23634630  0.02321601    -0.09400
C1893       C  0.25588794  0.27533447  0.02608462     0.00200
C1894       C  0.25507161  0.31204365  0.03231436     0.00000
C1895       C  0.21448339  0.30939796  0.03486330    -0.13000
C1896       C  0.17514156  0.27067916  0.03183143     0.00500
C1897       C  0.29655021  0.27577870  0.02346147     0.39800
C1898       C  0.13437816  0.27003637  0.03448203     0.36400
C1899       C  0.13142971  0.18250593  0.05394197     0.36200
C1900       C  0.06286643  0.11426693  0.99431421     0.36900
N1901       N  0.32905044  0.27592091  0.02137359    -0.43900
N1902       N  0.10193468  0.26999084  0.03659060    -0.44300
N1903       N  0.04971480  0.10162809  0.98202132    -0.41700
N1904       N  0.14557027  0.19491847  0.06614803    -0.43100
H1905       H  0.05931318  0.10826409  0.04799356     0.13000
H1906       H  0.13513582  0.18933485  0.00044432     0.09500
H1907       H  0.21709771  0.20764072  0.01904952     0.10600
H1908       H  0.21350378  0.33770270  0.03931738     0.16400
C1909       C  0.34055588  0.49823587  0.08181972    -0.01800
C1910       C  0.32521373  0.47405665  0.09563764     0.06800
C1911       C  0.31638330  0.43058707  0.09612770    -0.07800
C1912       C  0.32021083  0.41017369  0.08284113     0.04200
C1913       C  0.33328822  0.43358088  0.06878565    -0.15000
C1914       C  0.34493647  0.47799648  0.06854884    -0.08300
C1915       C  0.31119898  0.49077169  0.10883276     0.05200
C1916       C  0.26625093  0.47459355  0.11069278    -0.09400
C1917       C  0.25046488  0.48994638  0.12251909     0.00200
C1918       C  0.28007910  0.52177207  0.13305860     0.00000
C1919       C  0.32535925  0.53786163  0.13114568    -0.13000
C1920       C  0.34104595  0.52265863  0.11913373     0.00500
C1921       C  0.20393562  0.47403501  0.12291713     0.39800
C1922       C  0.38762078  0.53959381  0.11770664     0.36400
C1923       C  0.34893581  0.54272137  0.08073944     0.36200
C1924       C  0.31032330  0.36518277  0.08392049     0.36900
N1925       N  0.16664574  0.46133328  0.12304728    -0.43900
N1926       N  0.42493303  0.55308562  0.11655149    -0.44300
N1927       N  0.30244771  0.32915228  0.08483256    -0.41700
N1928       N  0.35546118  0.57831145  0.07989183    -0.43100
H1929       H  0.35513198  0.49617954  0.05778818     0.13000
H1930       H  0.30467531  0.41203309  0.10677499     0.09500
H1931       H  0.24338902  0.45041790  0.10259934     0.10600
H1932       H  0.34857367  0.56200103  0.13915091     0.16400
C1933       C  0.49573818  0.38600681  0.97013365    -0.01800
C1934       C  0.46196195  0.36522245  0.95917015     0.06800
C1935       C  0.41999270  0.35808210  0.96259125    -0.07800
C1936       C  0.41212647  0.37394923  0.97636553     0.04200
C1937       C  0.44718330  0.39864743  0.98664323    -0.15000
C1938       C  0.48839715  0.40321426  0.98359436    -0.08300
C1939       C  0.47050241  0.35157022  0.94400048     0.05200
C1940       C  0.45142241  0.30681207  0.94068882    -0.09400
C1941       C  0.46194686  0.29258345  0.92710330     0.00200
C1942       C  0.49236022  0.32370394  0.91650457     0.00000
C1943       C  0.51031612  0.36867785  0.91970315    -0.13000
C1944       C  0.49937606  0.38272572  0.93323778     0.00500
C1945       C  0.44234694  0.24583972  0.92476183     0.39800
C1946       C  0.51803519  0.42926385  0.93587859     0.36400
C1947       C  0.53817892  0.39010922  0.96768660     0.36200
C1948       C  0.36828298  0.36551864  0.97938243     0.36900
N1949       N  0.42667102  0.20844775  0.92274875    -0.43900
N1950       N  0.53281812  0.46647486  0.93807317    -0.44300
N1951       N  0.33295981  0.35812197  0.98187165    -0.41700
N1952       N  0.57193618  0.39299538  0.96555427    -0.43100
H1953       H  0.51514462  0.42084143  0.99166527     0.13000
H1954       H  0.39365929  0.34097330  0.95433196     0.09500
H1955       H  0.42920574  0.28289853  0.94898251     0.10600
H1956       H  0.53304436  0.39301431  0.91163290     0.16400
C1957       C  0.62705570  0.70001715  0.02700544    -0.01800
C1958       C  0.62652938  0.66079119  0.02320791     0.06800
C1959       C  0.66635982  0.66168113  0.02079236    -0.07800
C1960       C  0.70637126  0.70107895  0.02190147     0.04200
C1961       C  0.70676091  0.74057462  0.02512953    -0.15000
C1962       C  0.66702080  0.73945071  0.02794889    -0.08300
C1963       C  0.58497727  0.61872638  0.02106403     0.05200
C1964       C  0.57204512  0.60285100  0.00602065    -0.09400
C1965       C  0.53484911  0.56186221  0.00338416     0.00200
C1966       C  0.51007286  0.53557282  0.01601673     0.00000
C1967       C  0.52196975  0.55246506  0.03104998    -0.13000
C1968       C  0.55928642  0.59357222  0.03365718     0.00500
C1969       C  0.52242484  0.54789518  0.98758828     0.39800
C1970       C  0.57166117  0.60828391  0.04936411     0.36400
C1971       C  0.58714020  0.70105684  0.02954954     0.36200
C1972       C  0.74670807  0.70008052  0.02045968     0.36900
N1973       N  0.51202456  0.53621201  0.97500623    -0.43900
N1974       N  0.58139051  0.61974226  0.06199908    -0.44300
N1975       N  0.77940802  0.69997837  0.01953492    -0.41700
N1976       N  0.55554604  0.70264161  0.03165477    -0.43100
H1977       H  0.66712092  0.76967565  0.03050245     0.13000
H1978       H  0.66612659  0.63146808  0.01810165     0.09500
H1979       H  0.59138720  0.62245451  0.99630540     0.10600
H1980       H  0.50318492  0.53277537  0.04083017     0.16400
C1981       C  0.01800566  0.50843314  0.57690045    -0.01800
C1982       C  0.01687487  0.48192757  0.58934113     0.06800
C1983       C  0.98668325  0.43681564  0.58899494    -0.07800
C1984       C  0.95952933  0.41753592  0.57620336     0.04200
C1985       C  0.96314685  0.44340155  0.56316611    -0.15000
C1986       C  0.99144827  0.48900684  0.56389208    -0.08300
C1987       C  0.04626540  0.50025867  0.60296372     0.05200
C1988       C  0.04327535  0.53105466  0.61237463    -0.09400
C1989       C  0.06905257  0.54766777  0.62569010     0.00200
C1990       C  0.09794618  0.53245610  0.63004545     0.00000
C1991       C  0.10099841  0.50181607  0.62045627    -0.13000
C1992       C  0.07596018  0.48607985  0.60699547     0.00500
C1993       C  0.06412951  0.57949853  0.63466970     0.39800
C1994       C  0.08248073  0.45648716  0.59726690     0.36400
C1995       C  0.04695996  0.55537914  0.57705497     0.36200
C1996       C  0.92707781  0.37143913  0.57706499     0.36900
N1997       N  0.05995772  0.60521014  0.64165434    -0.43900
N1998       N  0.08819464  0.43305441  0.58949937    -0.44300
N1999       N  0.90083065  0.33463716  0.57796086    -0.41700
N2000       N  0.06988252  0.59306189  0.57730330    -0.43100
H2001       H  0.99403251  0.50928729  0.55407651     0.13000
H2002       H  0.98427468  0.41658924  0.59881756     0.09500
H2003       H  0.02029413  0.54184255  0.60936978     0.10600
H2004       H  0.12359995  0.49045591  0.62334000     0.16400
C2005       C  0.94697851  0.27413801  0.52964406    -0.01800
C2006       C  0.90960421  0.23935138  0.52263593     0.06800
C2007       C  0.87659751  0.24689716  0.51705100    -0.07800
C2008       C  0.87952076  0.28792374  0.51892245     0.04200
C2009       C  0.91622383  0.32241893  0.52648564    -0.15000
C2010       C  0.94999078  0.31506706  0.53149895    -0.08300
C2011       C  0.90257160  0.19402709  0.52252832     0.05200
C2012       C  0.89687404  0.17262833  0.53672035    -0.09400
C2013       C  0.89200842  0.13073571  0.53746930     0.00200
C2014       C  0.89244854  0.10918227  0.52375598     0.00000
C2015       C  0.89648513  0.12992446  0.50948206    -0.13000
C2016       C  0.90184450  0.17216431  0.50877914     0.00500
C2017       C  0.88603843  0.11052535  0.55246828     0.39800
C2018       C  0.90843279  0.19304386  0.49390521     0.36400
C2019       C  0.98242287  0.26839482  0.53521330     0.36200
C2020       C  0.84292008  0.29253949  0.51401298     0.36900
N2021       N  0.88142271  0.09455316  0.56451473    -0.43900
N2022       N  0.91385089  0.20955845  0.48192738    -0.44300
N2023       N  0.81360504  0.29641152  0.51016224    -0.41700
N2024       N  0.01082104  0.26381613  0.53967537    -0.43100
H2025       H  0.97859789  0.34119993  0.53718480     0.13000
H2026       H  0.84756503  0.22006688  0.51182164     0.09500
H2027       H  0.89664846  0.18902670  0.54730098     0.10600
H2028       H  0.89702293  0.11376312  0.49888299     0.16400
C2029       C  0.84035199  0.58968771  0.51030352    -0.01800
C2030       C  0.87577948  0.62239847  0.51873411     0.06800
C2031       C  0.90737151  0.61356467  0.52476060    -0.07800
C2032       C  0.90429876  0.57265808  0.52252083     0.04200
C2033       C  0.86901332  0.53950411  0.51388869    -0.15000
C2034       C  0.83745913  0.54894726  0.50780778    -0.08300
C2035       C  0.88087529  0.66636975  0.52122497     0.05200
C2036       C  0.85757423  0.67236351  0.53323015    -0.09400
C2037       C  0.86129784  0.71346833  0.53572886     0.00200
C2038       C  0.88818160  0.74885139  0.52594522     0.00000
C2039       C  0.91212308  0.74310168  0.51419071    -0.13000
C2040       C  0.90874563  0.70226800  0.51177205     0.00500
C2041       C  0.83683700  0.71849443  0.54816764     0.39800
C2042       C  0.93291724  0.69765680  0.49916268     0.36400
C2043       C  0.80636174  0.59715430  0.50432602     0.36200
C2044       C  0.93863290  0.56656041  0.52893636     0.36900
N2045       N  0.81751848  0.72262319  0.55821130    -0.43900
N2046       N  0.95229247  0.69430839  0.48897355    -0.44300
N2047       N  0.96627793  0.56194043  0.53414586    -0.41700
N2048       N  0.77903804  0.60324026  0.49972151    -0.43100
H2049       H  0.80996216  0.52426553  0.50123100     0.13000
H2050       H  0.93467391  0.63890687  0.53124011     0.09500
H2051       H  0.83629965  0.64483895  0.54056044     0.10600
H2052       H  0.93273436  0.77040528  0.50665386     0.16400
C2053       C  0.74107935  0.38858134  0.46635123    -0.01800
C2054       C  0.75060180  0.36230652  0.45668178     0.06800
C2055       C  0.78533415  0.35541607  0.46046208    -0.07800
C2056       C  0.81192342  0.37606163  0.47335685     0.04200
C2057       C  0.80407669  0.40469526  0.48259117    -0.15000
C2058       C  0.76799862  0.40992068  0.47902654    -0.08300
C2059       C  0.72678633  0.34527000  0.44191648     0.05200
C2060       C  0.73432325  0.37538233  0.43005325    -0.09400
C2061       C  0.70983990  0.36203489  0.41641402     0.00200
C2062       C  0.67653285  0.31780083  0.41461344     0.00000
C2063       C  0.67052724  0.28729956  0.42618625    -0.13000
C2064       C  0.69533514  0.30067063  0.43978263     0.00500
C2065       C  0.72062400  0.39401223  0.40427472     0.39800
C2066       C  0.68665906  0.26833961  0.45156259     0.36400
C2067       C  0.70323880  0.39329273  0.46353688     0.36200
C2068       C  0.84833595  0.36911869  0.47621628     0.36900
N2069       N  0.72957306  0.41957089  0.39451284    -0.43900
N2070       N  0.67931547  0.24197974  0.46088223    -0.44300
N2071       N  0.87747130  0.36341283  0.47844653    -0.41700
N2072       N  0.67246610  0.39620362  0.46121315    -0.43100
H2073       H  0.76069676  0.43075634  0.48617660     0.13000
H2074       H  0.79251782  0.33499756  0.45303300     0.09500
H2075       H  0.75917282  0.40958161  0.43155892     0.10600
H2076       H  0.64538614  0.25315301  0.42483319     0.16400
C2077       C  0.50773671  0.47763785  0.85646090    -0.01800
C2078       C  0.54527052  0.51818230  0.85976496     0.06800
C2079       C  0.58596878  0.52063373  0.86136709    -0.07800
C2080       C  0.58954328  0.48292880  0.86014774     0.04200
C2081       C  0.55164110  0.44178688  0.85751848    -0.15000
C2082       C  0.51114614  0.43978193  0.85533191    -0.08300
C2083       C  0.54259311  0.55809670  0.86259075     0.05200
C2084       C  0.53876288  0.56870021  0.87785872    -0.09400
C2085       C  0.54049778  0.60824991  0.88138214     0.00200
C2086       C  0.54550423  0.63768353  0.86937143     0.00000
C2087       C  0.54718326  0.62590539  0.85399163    -0.13000
C2088       C  0.54631120  0.58661102  0.85054987     0.00500
C2089       C  0.53745464  0.61769380  0.89742874     0.39800
C2090       C  0.55114726  0.57701227  0.83470971     0.36400
C2091       C  0.46545536  0.47420199  0.85449893     0.36200
C2092       C  0.63262441  0.48768465  0.86102790     0.36900
N2093       N  0.53522982  0.62487849  0.91033959    -0.43900
N2094       N  0.55521855  0.56934166  0.82202323    -0.44300
N2095       N  0.66731763  0.49186808  0.86158230    -0.41700
N2096       N  0.43168906  0.47170461  0.85289380    -0.46100
H2097       H  0.48192035  0.40841394  0.85315404     0.13000
H2098       H  0.61493728  0.55209934  0.86369138     0.09500
H2099       H  0.53561783  0.54645810  0.88708921     0.10600
H2100       H  0.55139309  0.64839103  0.84471392     0.16400
C2101       C  0.69473995  0.79963338  0.95360934    -0.01800
C2102       C  0.70259309  0.82575546  0.94032910     0.06800
C2103       C  0.73949609  0.86795850  0.93980173    -0.07800
C2104       C  0.76862445  0.88432539  0.95229147     0.04200
C2105       C  0.76055714  0.85822923  0.96562681    -0.15000
C2106       C  0.72363218  0.81600889  0.96611173    -0.08300
C2107       C  0.67505569  0.80786255  0.92633436     0.05200
C2108       C  0.64489488  0.82123210  0.92236309    -0.09400
C2109       C  0.61717174  0.80303691  0.90949972     0.00200
C2110       C  0.61977996  0.77103273  0.90037630     0.00000
C2111       C  0.65114619  0.75902099  0.90423874    -0.13000
C2112       C  0.67839655  0.77689015  0.91705559     0.00500
C2113       C  0.58519569  0.81624766  0.90642250     0.39800
C2114       C  0.70916698  0.76240187  0.92064394     0.36400
C2115       C  0.65772935  0.75560002  0.95451035     0.36200
C2116       C  0.80771684  0.92680671  0.95077312     0.36900
N2117       N  0.55953990  0.82682361  0.90395889    -0.43900
N2118       N  0.73364466  0.75068159  0.92364009    -0.44300
N2119       N  0.83911178  0.96072366  0.94943638    -0.41700
N2120       N  0.62826237  0.72018443  0.95516507    -0.43100
H2121       H  0.71727193  0.79581956  0.97632055     0.13000
H2122       H  0.74621920  0.88756738  0.92942439     0.09500
H2123       H  0.64232635  0.84510654  0.92953700     0.10600
H2124       H  0.65414176  0.73499023  0.89730593     0.16400
C2125       C  0.34254969  0.64325497  0.77773707    -0.01800
C2126       C  0.37992252  0.68533391  0.77910602     0.06800
C2127       C  0.39460768  0.71287883  0.76609458    -0.07800
C2128       C  0.37232443  0.69916356  0.75192683     0.04200
C2129       C  0.33477011  0.65702041  0.75060039    -0.15000
C2130       C  0.32047956  0.62942197  0.76357087    -0.08300
C2131       C  0.40376968  0.70143289  0.79405378     0.05200
C2132       C  0.44047695  0.69701734  0.79702610    -0.09400
C2133       C  0.46442517  0.71285831  0.81082324     0.00200
C2134       C  0.45297259  0.73558379  0.82166939     0.00000
C2135       C  0.41535499  0.73879356  0.81879151    -0.13000
C2136       C  0.39034048  0.72111688  0.80533019     0.00500
C2137       C  0.50087019  0.70579650  0.81335486     0.39800
C2138       C  0.35074313  0.72310265  0.80334404     0.36400
C2139       C  0.32590461  0.61393031  0.79078419     0.36200
C2140       C  0.38903586  0.72839001  0.73880418     0.36900
N2141       N  0.52962515  0.69937043  0.81537232    -0.43900
N2142       N  0.31864616  0.72404829  0.80177146    -0.44300
N2143       N  0.40209181  0.75142919  0.72819428    -0.41700
N2144       N  0.31240321  0.59032828  0.80122777    -0.43100
H2145       H  0.29114596  0.59748191  0.76276990     0.13000
H2146       H  0.42337915  0.74524792  0.76704678     0.09500
H2147       H  0.45036353  0.68099327  0.78853780     0.10600
H2148       H  0.40530776  0.75501592  0.82714047     0.16400
C2149       C  0.53919746  0.01558340  0.84529087    -0.01800
C2150       C  0.53951293  0.99557535  0.85935910     0.06800
C2151       C  0.54433446  0.01792893  0.87323936    -0.07800
C2152       C  0.54766486  0.05935578  0.87331245     0.04200
C2153       C  0.54762382  0.07975443  0.85917508    -0.15000
C2154       C  0.54363682  0.05737014  0.84528666    -0.08300
C2155       C  0.53154643  0.95000974  0.85968632     0.05200
C2156       C  0.56630979  0.94243632  0.86263870    -0.09400
C2157       C  0.56083461  0.90031460  0.86084529     0.00200
C2158       C  0.52012460  0.86533870  0.85559150     0.00000
C2159       C  0.48482733  0.87273401  0.85366134    -0.13000
C2160       C  0.49004163  0.91435383  0.85595993     0.00500
C2161       C  0.59801487  0.89466469  0.86385990     0.39800
C2162       C  0.45238102  0.91992759  0.85440223     0.36400
C2163       C  0.53309824  0.99321135  0.83072887     0.36200
C2164       C  0.54760437  0.07822365  0.88811547     0.36900
N2165       N  0.62791028  0.89043545  0.86643744    -0.43900
N2166       N  0.42224107  0.92454140  0.85329650    -0.44300
N2167       N  0.54701921  0.09257433  0.90008035    -0.41700
N2168       N  0.52765433  0.97492888  0.81911183    -0.43100
H2169       H  0.54346681  0.07232581  0.83435683     0.13000
H2170       H  0.54361143  0.00212693  0.88407644     0.09500
H2171       H  0.59806936  0.96971448  0.86586220     0.10600
H2172       H  0.45298715  0.84587828  0.85027534     0.16400
C2173       C  0.93123209  0.25184418  0.68768448    -0.01800
C2174       C  0.92499623  0.28670325  0.69228340     0.06800
C2175       C  0.88288641  0.27845245  0.69600913    -0.07800
C2176       C  0.84657453  0.23624696  0.69446198     0.04200
C2177       C  0.85238415  0.20167186  0.68892714    -0.15000
C2178       C  0.89501866  0.20979442  0.68595946    -0.08300
C2179       C  0.96175743  0.33236829  0.69196445     0.05200
C2180       C  0.98014433  0.35088257  0.67762612    -0.09400
C2181       C  0.01746231  0.39240315  0.67669214     0.00200
C2182       C  0.03759984  0.41565948  0.69037452     0.00000
C2183       C  0.01751119  0.39802358  0.70469117    -0.13000
C2184       C  0.97956538  0.35680297  0.70555389     0.00500
C2185       C  0.03337243  0.41081126  0.66156203     0.39800
C2186       C  0.96018453  0.33969200  0.72047034     0.36400
C2187       C  0.97451054  0.25889175  0.68439568     0.36200
C2188       C  0.80373259  0.23027626  0.69766399     0.36900
N2189       N  0.04588495  0.42571355  0.64944263    -0.43900
N2190       N  0.94434890  0.32599216  0.73238905    -0.44300
N2191       N  0.76948224  0.22567773  0.70028099    -0.41700
N2192       N  0.00934076  0.26500533  0.68179064    -0.43100
H2193       H  0.89997794  0.18339992  0.68195218     0.13000
H2194       H  0.87823406  0.30540804  0.69954676     0.09500
H2195       H  0.96539379  0.33253077  0.66713064     0.10600
H2196       H  0.03208670  0.41588999  0.71527857     0.16400
C2197       C  0.77730000  0.01452990  0.63873886    -0.01800
C2198       C  0.80007067  0.04079620  0.62592344     0.06800
C2199       C  0.81502576  0.08584674  0.62631797    -0.07800
C2200       C  0.80885619  0.10532892  0.63942705     0.04200
C2201       C  0.78668121  0.07929695  0.65246742    -0.15000
C2202       C  0.77012003  0.03376994  0.65179481    -0.08300
C2203       C  0.81047813  0.02266853  0.61215246     0.05200
C2204       C  0.78055250  0.00618944  0.59990304    -0.09400
C2205       C  0.79070179  0.99164322  0.58625218     0.00200
C2206       C  0.83171373  0.99373319  0.58473305     0.00000
C2207       C  0.86160512  0.01047297  0.59704741    -0.13000
C2208       C  0.85121359  0.02461940  0.61070022     0.00500
C2209       C  0.75930408  0.97701212  0.57379516     0.39800
C2210       C  0.88274177  0.04094589  0.62312073     0.36400
C2211       C  0.76315956  0.96833034  0.63902041     0.36200
C2212       C  0.82554920  0.15210939  0.63907505     0.36900
N2213       N  0.73362272  0.96572500  0.56398555    -0.43900
N2214       N  0.90785503  0.05391224  0.63312712    -0.44300
N2215       N  0.83919429  0.18962355  0.63876267    -0.41700
N2216       N  0.75230783  0.93139580  0.63929321    -0.43100
H2217       H  0.75336585  0.01352637  0.66173793     0.13000
H2218       H  0.83241312  0.10600880  0.61642451     0.09500
H2219       H  0.74951069  0.00543802  0.60092491     0.10600
H2220       H  0.89302409  0.01200530  0.59606762     0.16400
C2221       C  0.55183105  0.91613413  0.68345491    -0.01800
C2222       C  0.52236558  0.89243944  0.69545672     0.06800
C2223       C  0.53273525  0.90787210  0.71064237    -0.07800
C2224       C  0.57052461  0.94770252  0.71391875     0.04200
C2225       C  0.59828945  0.97359814  0.70174327    -0.15000
C2226       C  0.58942453  0.95656098  0.68664802    -0.08300
C2227       C  0.47998870  0.85187299  0.69256036     0.05200
C2228       C  0.47977556  0.81376112  0.68777797    -0.09400
C2229       C  0.44029658  0.77398381  0.68619814     0.00200
C2230       C  0.40000754  0.77191226  0.68973003     0.00000
C2231       C  0.40046977  0.81055229  0.69412154    -0.13000
C2232       C  0.43985886  0.85035553  0.69536505     0.00500
C2233       C  0.44272281  0.73581647  0.68160951     0.39800
C2234       C  0.43826950  0.88947442  0.69918694     0.36400
C2235       C  0.54304350  0.90042535  0.66773675     0.36200
C2236       C  0.58041530  0.96041391  0.72993133     0.36900
N2237       N  0.44550934  0.70574431  0.67786502    -0.43900
N2238       N  0.43692624  0.92086261  0.70210491    -0.44300
N2239       N  0.58833185  0.97020847  0.74278611    -0.41700
N2240       N  0.53576086  0.88742618  0.65518499    -0.43100
H2241       H  0.61078936  0.97561926  0.67723063     0.13000
H2242       H  0.51089700  0.88878025  0.71996679     0.09500
H2243       H  0.51065838  0.81493361  0.68560621     0.10600
H2244       H  0.36985403  0.80973357  0.69650538     0.16400
C2245       C  0.63423760  0.15314534  0.78556337    -0.01800
C2246       C  0.63545902  0.17144908  0.77095381     0.06800
C2247       C  0.62596030  0.20550258  0.76976166    -0.07800
C2248       C  0.61519202  0.22140311  0.78289334     0.04200
C2249       C  0.61391710  0.20314284  0.79751528    -0.15000
C2250       C  0.62355737  0.16911952  0.79871548    -0.08300
C2251       C  0.64296363  0.15299219  0.75665976     0.05200
C2252       C  0.60654090  0.12299489  0.74809541    -0.09400
C2253       C  0.61151729  0.10235819  0.73507815     0.00200
C2254       C  0.65385718  0.11129843  0.73051232     0.00000
C2255       C  0.69051862  0.14323553  0.73869224    -0.13000
C2256       C  0.68532230  0.16412847  0.75166375     0.00500
C2257       C  0.57250889  0.07281053  0.72653551     0.39800
C2258       C  0.72371605  0.19704470  0.75965373     0.36400
C2259       C  0.64210246  0.11684601  0.78720257     0.36200
C2260       C  0.60241941  0.25411258  0.78089061     0.36900
N2261       N  0.54119398  0.04920163  0.71971294    -0.43900
N2262       N  0.75437984  0.22375730  0.76602466    -0.44300
N2263       N  0.59133933  0.27964265  0.77905852    -0.41700
N2264       N  0.64819932  0.08761300  0.78849046    -0.43100
H2265       H  0.62207644  0.15459787  0.80990795     0.13000
H2266       H  0.62586983  0.21887298  0.75848627     0.09500
H2267       H  0.57398905  0.11528579  0.75173415     0.10600
H2268       H  0.72321250  0.15104793  0.73523238     0.16400
loop_ 
_geom_bond_atom_site_label_1 
_geom_bond_atom_site_label_2 
_geom_bond_distance 
_geom_bond_site_symmetry_2 
_ccdc_geom_bond_type 
C1            N2   1.354       .  A
C1            N6   1.359       .  A
C1         C2254   1.487       .  S
N2            C3   1.355       .  A
C3            N4   1.359       .  A
C3         C2225   1.483   1_545  S
N4            C5   1.361       .  A
C5            N6   1.363       .  A
C5           C11   1.470       .  S
C7            N8   1.355       .  A
C7           N12   1.361       .  A
C7         C2201   1.483       .  S
N8            C9   1.355       .  A
C9           N10   1.356       .  A
C9         C2177   1.478       .  S
N10          C11   1.358       .  A
C11          N12   1.363       .  A
C13          N14   1.360       .  A
C13          N18   1.363       .  A
C13        C2134   1.496       .  S
N14          C15   1.361       .  A
C15          N16   1.355       .  A
C15        C2158   1.483       .  S
N16          C17   1.356       .  A
C17          N18   1.365       .  A
C17          C23   1.473       .  S
C19          N20   1.354       .  A
C19          N24   1.362       .  A
C19        C2110   1.489       .  S
N20          C21   1.353       .  A
C21          N22   1.357       .  A
C21        C2086   1.476       .  S
N22          C23   1.359       .  A
C23          N24   1.366       .  A
C25          N26   1.358       .  A
C25          N30   1.359       .  A
C25        C2057   1.489       .  S
N26          C27   1.359       .  A
C27          N28   1.364       .  A
C27        C2033   1.498       .  S
N28          C29   1.362       .  A
C29          N30   1.360       .  A
C29          C35   1.479       .  S
C31          N32   1.356       .  A
C31          N36   1.363       .  A
C31        C1985   1.483       .  S
N32          C33   1.354       .  A
C33          N34   1.360       .  A
C33        C2009   1.490       .  S
N34          C35   1.363       .  A
C35          N36   1.364       .  A
C37          N38   1.355   1_556  A
C37          N42   1.356   1_556  A
C37        C1937   1.477       .  S
N38          C39   1.355       .  A
C39          N40   1.359       .  A
C39        C1966   1.485       .  S
N40          C41   1.362       .  A
C41          N42   1.359       .  A
C41          C45   1.464       .  S
C43          N44   1.356       .  A
C43          N48   1.358       .  A
C43        C1913   1.474       .  S
N44          C45   1.357       .  A
C45          N46   1.360       .  A
N46          C47   1.358       .  A
C47          N48   1.358       .  A
C47        C1894   1.481       .  S
C49          N50   1.361   1_655  A
C49          N54   1.357       .  A
C49        C1841   1.492       .  S
N50          C51   1.364       .  A
C51          N52   1.359   1_455  A
C51          C59   1.470       .  S
N52          C53   1.356       .  A
C53          N54   1.357       .  A
C53        C1865   1.480       .  S
C55          N56   1.354       .  A
C55          N60   1.360       .  A
C55        C1817   1.483       .  S
N56          C57   1.354       .  A
C57          N58   1.357       .  A
C57        C1793   1.481       .  S
N58          C59   1.360       .  A
C59          N60   1.365       .  A
C61          N62   1.356       .  A
C61          N66   1.357       .  A
C61        C1745   1.475       .  S
N62          C63   1.356       .  A
C63          N64   1.357       .  A
C63        C1769   1.481       .  S
N64          C65   1.360       .  A
C65          N66   1.360       .  A
C65          C71   1.465       .  S
C67          N68   1.355       .  A
C67          N72   1.358       .  A
C67        C1697   1.485       .  S
N68          C69   1.354       .  A
C69          N70   1.357       .  A
C69        C1726   1.481   1_545  S
N70          C71   1.360       .  A
C71          N72   1.360       .  A
C73          N74   1.355       .  A
C73          N78   1.362       .  A
C73        C1678   1.488       .  S
N74          C75   1.353   1_455  A
C75          N76   1.359   1_655  A
C75        C1649   1.475       .  S
N76          C77   1.361       .  A
C77          N78   1.363       .  A
C77          C83   1.476       .  S
C79          N80   1.357       .  A
C79          N84   1.359       .  A
C79        C1625   1.483       .  S
N80          C81   1.360       .  A
C81          N82   1.362       .  A
C81        C1601   1.493       .  S
N82          C83   1.362       .  A
C83          N84   1.361       .  A
C85          N86   1.357       .  A
C85          N90   1.356       .  A
C85        C1577   1.471       .  S
N86          C87   1.360       .  A
C87          N88   1.360       .  A
C87          C93   1.469       .  S
N88          C89   1.359       .  A
C89          N90   1.356       .  A
C89        C1558   1.479       .  S
C91          N92   1.361       .  A
C91          N96   1.357       .  A
C91        C1505   1.495       .  S
N92          C93   1.362       .  A
C93          N94   1.360       .  A
N94          C95   1.357       .  A
C95          N96   1.353       .  A
C95        C1529   1.487       .  S
C97          N98   1.354       .  A
C97         N102   1.365       .  A
C97        C1486   1.496       .  S
N98          C99   1.354       .  A
C99         N100   1.357       .  A
C99        C1457   1.478       .  S
N100        C101   1.360       .  A
C101        N102   1.368       .  A
C101        C105   1.479       .  S
C103        N104   1.363       .  A
C103        N108   1.358       .  A
C103       C1409   1.505       .  S
N104        C105   1.365       .  A
C105        N106   1.360       .  A
N106        C107   1.359       .  A
C107        N108   1.357       .  A
C107       C1433   1.477       .  S
C109        N110   1.355   1_556  A
C109        N114   1.361   1_556  A
C109       C1361   1.492   1_565  S
N110        C111   1.356       .  A
C111        N112   1.361       .  A
C111       C1385   1.497       .  S
N112        C113   1.363       .  A
C113        N114   1.365       .  A
C113        C117   1.479       .  S
C115        N116   1.363       .  A
C115        N120   1.353       .  A
C115       C1342   1.485       .  S
N116        C117   1.367       .  A
C117        N118   1.362       .  A
N118        C119   1.359       .  A
C119        N120   1.353       .  A
C119       C1318   1.487       .  S
C121        N122   1.354       .  A
C121        N126   1.362       .  A
C121       C1265   1.487       .  S
N122        C123   1.352       .  A
C123        N124   1.354       .  A
C123       C1289   1.478       .  S
N124        C125   1.359       .  A
C125        N126   1.364       .  A
C125        C131   1.465       .  S
C127        N128   1.356       .  A
C127        N132   1.355       .  A
C127       C1241   1.479       .  S
N128        C129   1.358   1_455  A
C129        N130   1.359   1_655  A
C129       C1222   1.487       .  S
N130        C131   1.359       .  A
C131        N132   1.360       .  A
C133        N134   1.357       .  A
C133        N138   1.357       .  A
C133       C1169   1.476       .  S
N134        C135   1.357       .  A
C135        N136   1.359       .  A
C135       C1193   1.479       .  S
N136        C137   1.361       .  A
C137        N138   1.357       .  A
C137        C143   1.467       .  S
C139        N140   1.351       .  A
C139        N144   1.356       .  A
C139       C1121   1.474       .  S
N140        C141   1.351   1_545  A
C141        N142   1.361   1_565  A
C141       C1145   1.478       .  S
N142        C143   1.363       .  A
C143        N144   1.358       .  A
C145        N146   1.361       .  A
C145        N150   1.359       .  A
C145       C1097   1.490       .  S
N146        C147   1.364       .  A
C147        N148   1.359       .  A
C147        C153   1.472       .  S
N148        C149   1.357       .  A
C149        N150   1.357       .  A
C149       C1078   1.482       .  S
C151        N152   1.361       .  A
C151        N156   1.352       .  A
C151       C1054   1.488       .  S
N152        C153   1.366       .  A
C153        N154   1.362       .  A
N154        C155   1.359       .  A
C155        N156   1.352       .  A
C155       C1030   1.493       .  S
C157        N158   1.356       .  A
C157        N162   1.361       .  A
C157       C1001   1.488       .  S
N158        C159   1.354       .  A
C159        N160   1.355       .  A
C159        C977   1.472       .  S
N160        C161   1.359       .  A
C161        N162   1.362       .  A
C161        C167   1.469       .  S
C163        N164   1.353   1_545  A
C163        N168   1.359       .  A
C163        C958   1.482       .  S
N164        C165   1.352   1_565  A
C165        N166   1.358       .  A
C165        C929   1.471   1_545  S
N166        C167   1.361       .  A
C167        N168   1.362       .  A
C169        N170   1.351       .  A
C169        N174   1.357       .  A
C169        C886   1.483       .  S
N170        C171   1.355       .  A
C171        N172   1.358       .  A
C171        C910   1.486       .  S
N172        C173   1.360       .  A
C173        N174   1.361       .  A
C173        C177   1.466       .  S
C175        N176   1.362       .  A
C175        N180   1.357       .  A
C175        C838   1.491       .  S
N176        C177   1.362       .  A
C177        N178   1.357       .  A
N178        C179   1.353       .  A
C179        N180   1.354       .  A
C179        C857   1.464       .  S
C181        N182   1.364       .  A
C181        N186   1.357       .  A
C181        C790   1.503       .  S
N182        C183   1.364       .  A
C183        N184   1.364       .  A
C183        C191   1.481       .  S
N184        C185   1.360       .  A
C185        N186   1.356       .  A
C185        C814   1.485       .  S
C187        N188   1.357       .  A
C187        N192   1.360       .  A
C187        C766   1.490       .  S
N188        C189   1.358       .  A
C189        N190   1.364       .  A
C189        C737   1.492       .  S
N190        C191   1.365       .  A
C191        N192   1.362       .  A
C193        N194   1.362   1_556  A
C193        N198   1.354   1_556  A
C193        C713   1.485       .  S
N194        C195   1.365       .  A
C195        N196   1.362       .  A
C195        C203   1.475       .  S
N196        C197   1.358       .  A
C197        N198   1.353       .  A
C197        C694   1.473       .  S
C199        N200   1.354       .  A
C199        N204   1.362       .  A
C199        C641   1.491       .  S
N200        C201   1.355       .  A
C201        N202   1.358       .  A
C201        C665   1.476       .  S
N202        C203   1.360       .  A
C203        N204   1.363       .  A
C205        N206   1.360       .  A
C205        N210   1.356       .  A
C205        C598   1.487       .  S
N206        C207   1.364       .  A
C207        N208   1.363       .  A
C207        C215   1.475       .  S
N208        C209   1.361       .  A
C209        N210   1.358       .  A
C209        C622   1.489       .  S
C211        N212   1.356       .  A
C211        N216   1.361   1_655  A
C211        C550   1.485       .  S
N212        C213   1.355       .  A
C213        N214   1.358       .  A
C213        C569   1.481       .  S
N214        C215   1.361   1_655  A
C215        N216   1.364       .  A
O217        C228   1.292       .  A
O217       Eu253   2.467       .  S
O218        C229   1.290       .  A
O218       Eu252   2.453       .  S
O219        C230   1.292       .  A
O219       Eu225   2.461       .  S
O220        C231   1.291       .  A
O220       Eu225   2.462       .  S
O221        C231   1.290       .  A
O221       Eu255   2.446       .  S
O222        C230   1.291       .  A
O222       Eu254   2.461       .  S
O223        C229   1.290       .  A
O223       Eu225   2.445       .  S
O224        C228   1.291       .  A
O224       Eu225   2.463       .  S
Eu225       O235   2.356       .  S
Eu225       O227   2.352       .  S
Eu225       O226   2.351       .  S
Eu225       O233   2.354       .  S
O226       Eu255   2.347       .  S
O226       Eu252   2.351       .  S
O227       Eu253   2.359       .  S
O227       Eu254   2.357       .  S
C228       C2249   1.475       .  S
C229       C1654   1.484       .  S
C230       C1510   1.483       .  S
C231        C574   1.482       .  S
H232        O233   0.956       .  S
O233       Eu254   2.345       .  S
O233       Eu252   2.349       .  S
H234        O235   0.957       .  S
O235       Eu253   2.356       .  S
O235       Eu255   2.357       .  S
O236        C259   1.291       .  A
O236       Eu252   2.455       .  S
O237        C260   1.294       .  A
O237       Eu253   2.469       .  S
O238        C261   1.289       .  A
O238       Eu254   2.449       .  S
O239        C262   1.289       .  A
O239       Eu255   2.447       .  S
O240        C263   1.290       .  A
O240       Eu255   2.454       .  S
O241        C264   1.289       .  A
O241       Eu254   2.442       .  S
O242        C265   1.290       .  A
O242       Eu256   2.452       .  S
O243        C266   1.293       .  A
O243       Eu256   2.470       .  S
O244        C265   1.291       .  A
O244       Eu254   2.455       .  S
O245        C266   1.291       .  A
O245       Eu255   2.461       .  S
O246        C261   1.292       .  A
O246       Eu252   2.463       .  S
O247        C264   1.295       .  A
O247       Eu253   2.477       .  S
O248        C263   1.294       .  A
O248       Eu253   2.471       .  S
O249        C262   1.291       .  A
O249       Eu252   2.458       .  S
O250        C259   1.289       .  A
O250       Eu256   2.449       .  S
O251        C260   1.291       .  A
O251       Eu256   2.454       .  S
Eu252       O270   2.360       .  S
Eu252       O258   2.346       .  S
Eu253       O257   2.354       .  S
Eu253       O268   2.354       .  S
Eu254       O268   2.355       .  S
Eu254       O258   2.347       .  S
Eu255       O257   2.344       .  S
Eu255       O270   2.353       .  S
Eu256       O257   2.345       .  S
Eu256       O268   2.355       .  S
Eu256       O270   2.351       .  S
Eu256       O258   2.353       .  S
C259       C1942   1.487       .  S
C260       C1606   1.490       .  S
C261       C2081   1.478       .  S
C262        C718   1.472       .  S
C263       C2153   1.489       .  S
C264       C1006   1.480       .  S
C265        C617   1.484       .  S
C266       C1366   1.490       .  S
H267        O268   0.957       .  S
H269        O270   0.960       .  S
O271        C282   1.291       .  A
O271       Eu307   2.458   1_556  S
O272        C283   1.292       .  A
O272       Eu306   2.463   1_545  S
O273        C284   1.292       .  A
O273       Eu279   2.460       .  S
O274        C285   1.294       .  A
O274       Eu279   2.475   1_546  S
O275        C285   1.290       .  A
O275       Eu309   2.452   1_546  S
O276        C284   1.291       .  A
O276       Eu308   2.456       .  S
O277        C283   1.290       .  A
O277       Eu279   2.452   1_545  S
O278        C282   1.290       .  A
O278       Eu279   2.450   1_556  S
Eu279       O289   2.355   1_554  S
Eu279       O281   2.355       .  S
Eu279       O280   2.343       .  S
Eu279       O287   2.353       .  S
O280       Eu309   2.350       .  S
O280       Eu306   2.347       .  S
O281       Eu307   2.353       .  S
O281       Eu308   2.358       .  S
C282       C2105   1.474       .  S
C283        C689   1.483       .  S
C284       C1313   1.481       .  S
C285        C545   1.489       .  S
H286        O287   0.970       .  S
O287       Eu308   2.354       .  S
O287       Eu306   2.349       .  S
H288        O289   0.976       .  S
O289       Eu307   2.356   1_556  S
O289       Eu309   2.348   1_556  S
O290        C313   1.291       .  A
O290       Eu306   2.457       .  S
O291        C314   1.291       .  A
O291       Eu307   2.457       .  S
O292        C315   1.292       .  A
O292       Eu308   2.460       .  S
O293        C316   1.290       .  A
O293       Eu309   2.452   1_445  S
O294        C317   1.291       .  A
O294       Eu309   2.464   1_556  S
O295        C318   1.290       .  A
O295       Eu308   2.455       .  S
O296        C319   1.289       .  A
O296       Eu310   2.445       .  S
O297        C320   1.290   1_655  A
O297       Eu310   2.450       .  S
O298        C319   1.292       .  A
O298       Eu308   2.470       .  S
O299        C320   1.290       .  A
O299       Eu309   2.453   1_455  S
O300        C315   1.291       .  A
O300       Eu306   2.457       .  S
O301        C318   1.291       .  A
O301       Eu307   2.454       .  S
O302        C317   1.294       .  A
O302       Eu307   2.474   1_556  S
O303        C316   1.293   1_655  A
O303       Eu306   2.462   1_545  S
O304        C313   1.292       .  A
O304       Eu310   2.460       .  S
O305        C314   1.289       .  A
O305       Eu310   2.448       .  S
Eu306       O324   2.351       .  S
Eu306       O312   2.352       .  S
Eu307       O311   2.348       .  S
Eu307       O322   2.362       .  S
Eu308       O322   2.352       .  S
Eu308       O312   2.348       .  S
Eu309       O311   2.347       .  S
Eu309       O324   2.357       .  S
Eu310       O311   2.352       .  S
Eu310       O322   2.354       .  S
Eu310       O324   2.349       .  S
Eu310       O312   2.347       .  S
C313       C1750   1.493   1_655  S
C314        C670   1.480       .  S
C315       C1126   1.484       .  S
C316       C1889   1.484       .  S
C317       C1630   1.504       .  S
C318       C1961   1.476       .  S
C319        C761   1.487       .  S
C320       C1390   1.472       .  S
H321        O322   0.967       .  S
H323        O324   0.967       .  S
O325        C336   1.291       .  A
O325       Eu361   2.456       .  S
O326        C337   1.291       .  A
O326       Eu360   2.463       .  S
O327        C338   1.289       .  A
O327       Eu333   2.443       .  S
O328        C339   1.290       .  A
O328       Eu333   2.455       .  S
O329        C339   1.291       .  A
O329       Eu363   2.459       .  S
O330        C338   1.292       .  A
O330       Eu362   2.463       .  S
O331        C337   1.292       .  A
O331       Eu333   2.463       .  S
O332        C336   1.290       .  A
O332       Eu333   2.451       .  S
Eu333       O343   2.348       .  S
Eu333       O335   2.357       .  S
Eu333       O334   2.340       .  S
Eu333       O341   2.360       .  S
O334       Eu363   2.344       .  S
O334       Eu360   2.347       .  S
O335       Eu361   2.354       .  S
O335       Eu362   2.358       .  S
C336       C2062   1.478       .  S
C337       C1025   1.482       .  S
C338        C881   1.480       .  S
C339       C1217   1.480       .  S
H340        O341   0.965       .  S
O341       Eu362   2.359       .  S
O341       Eu360   2.343       .  S
H342        O343   0.965       .  S
O343       Eu361   2.355       .  S
O343       Eu363   2.350       .  S
O344        C367   1.289       .  A
O344       Eu360   2.446       .  S
O345        C368   1.291       .  A
O345       Eu361   2.460       .  S
O346        C369   1.292       .  A
O346       Eu362   2.469       .  S
O347        C370   1.291       .  A
O347       Eu363   2.457       .  S
O348        C371   1.289       .  A
O348       Eu363   2.446       .  S
O349        C372   1.291       .  A
O349       Eu362   2.453       .  S
O350        C373   1.290       .  A
O350       Eu364   2.451       .  S
O351        C374   1.293       .  A
O351       Eu364   2.471       .  S
O352        C373   1.292       .  A
O352       Eu362   2.464       .  S
O353        C374   1.290       .  A
O353       Eu363   2.454       .  S
O354        C369   1.291       .  A
O354       Eu360   2.460       .  S
O355        C372   1.295       .  A
O355       Eu361   2.483       .  S
O356        C371   1.294       .  A
O356       Eu361   2.471       .  S
O357        C370   1.289       .  A
O357       Eu360   2.445       .  S
O358        C367   1.291       .  A
O358       Eu364   2.454       .  S
O359        C368   1.292       .  A
O359       Eu364   2.466       .  S
Eu360       O378   2.358       .  S
Eu360       O366   2.343       .  S
Eu361       O365   2.356       .  S
Eu361       O376   2.357       .  S
Eu362       O376   2.367       .  S
Eu362       O366   2.343       .  S
Eu363       O365   2.355       .  S
Eu363       O378   2.349       .  S
Eu364       O365   2.345       .  S
Eu364       O376   2.362       .  S
Eu364       O378   2.355       .  S
Eu364       O366   2.355       .  S
C367       C1702   1.479       .  S
C368       C1073   1.489       .  S
C369       C1798   1.487       .  S
C370       C1174   1.476       .  S
C371       C1870   1.482       .  S
C372       C1481   1.487       .  S
C373       C1294   1.481       .  S
C374        C785   1.482       .  S
H375        O376   0.963       .  S
H377        O378   0.967       .  S
O379        C390   1.289       .  A
O379       Eu415   2.448       .  S
O380        C391   1.286       .  A
O380       Eu414   2.433       .  S
O381        C392   1.292       .  A
O381       Eu387   2.463       .  S
O382        C393   1.290       .  A
O382       Eu387   2.449       .  S
O383        C393   1.295       .  A
O383       Eu417   2.478       .  S
O384        C392   1.289       .  A
O384       Eu416   2.444       .  S
O385        C391   1.296       .  A
O385       Eu387   2.486       .  S
O386        C390   1.295       .  A
O386       Eu387   2.474       .  S
Eu387       O397   2.358       .  S
Eu387       O389   2.357       .  S
Eu387       O388   2.355       .  S
Eu387       O395   2.352       .  S
O388       Eu417   2.342       .  S
O388       Eu414   2.347       .  S
O389       Eu415   2.357       .  S
O389       Eu416   2.354       .  S
C390       C2230   1.484       .  S
C391       C1673   1.493       .  S
C392        C934   1.489       .  S
C393       C2129   1.484       .  S
H394        O395   0.961       .  S
O395       Eu416   2.358       .  S
O395       Eu414   2.357       .  S
H396        O397   0.958       .  S
O397       Eu415   2.360       .  S
O397       Eu417   2.355       .  S
O398        C421   1.287       .  A
O398       Eu414   2.437       .  S
O399        C422   1.292       .  A
O399       Eu415   2.465       .  S
O400        C423   1.293       .  A
O400       Eu416   2.467       .  S
O401        C424   1.291       .  A
O401       Eu417   2.463       .  S
O402        C425   1.292       .  A
O402       Eu417   2.458       .  S
O403        C426   1.293       .  A
O403       Eu416   2.471       .  S
O404        C427   1.293       .  A
O404       Eu418   2.463       .  S
O405        C428   1.289       .  A
O405       Eu418   2.445       .  S
O406        C427   1.290       .  A
O406       Eu416   2.454       .  S
O407        C428   1.292       .  A
O407       Eu417   2.453       .  S
O408        C423   1.289       .  A
O408       Eu414   2.446       .  S
O409        C426   1.293       .  A
O409       Eu415   2.471       .  S
O410        C425   1.291       .  A
O410       Eu415   2.458       .  S
O411        C424   1.294       .  A
O411       Eu414   2.480       .  S
O412        C421   1.291       .  A
O412       Eu418   2.454       .  S
O413        C422   1.291       .  A
O413       Eu418   2.461       .  S
Eu414       O432   2.339       .  S
Eu414       O420   2.356       .  S
Eu415       O419   2.346       .  S
Eu415       O430   2.351       .  S
Eu416       O430   2.354       .  S
Eu416       O420   2.353       .  S
Eu417       O419   2.357       .  S
Eu417       O432   2.352       .  S
Eu418       O419   2.352       .  S
Eu418       O430   2.348       .  S
Eu418       O432   2.355       .  S
Eu418       O420   2.348       .  S
C421       C2182   1.478       .  S
C422       C1414   1.480       .  S
C423       C1534   1.484       .  S
C424        C593   1.506       .  S
C425       C1553   1.488       .  S
C426        C833   1.486       .  S
C427       C1990   1.490       .  S
C428        C982   1.479       .  S
H429        O430   0.966       .  S
H431        O432   0.958       .  S
O433        C444   1.292       .  A
O433       Eu469   2.461       .  S
O434        C445   1.290       .  A
O434       Eu468   2.450       .  S
O435        C446   1.292       .  A
O435       Eu441   2.465       .  S
O436        C447   1.288       .  A
O436       Eu441   2.442       .  S
O437        C447   1.293       .  A
O437       Eu471   2.473       .  S
O438        C446   1.292       .  A
O438       Eu470   2.465       .  S
O439        C445   1.292       .  A
O439       Eu441   2.462       .  S
O440        C444   1.293       .  A
O440       Eu441   2.467       .  S
Eu441       O451   2.355       .  S
Eu441       O443   2.345       .  S
Eu441       O442   2.353       .  S
Eu441       O449   2.354       .  S
O442       Eu471   2.340       .  S
O442       Eu468   2.349       .  S
O443       Eu469   2.354       .  S
O443       Eu470   2.347       .  S
C444       C1918   1.489       .  S
C445       C1150   1.481       .  S
C446       C1337   1.484       .  S
C447        C809   1.472       .  S
H448        O449   0.966       .  S
O449       Eu470   2.350       .  S
O449       Eu468   2.371       .  S
H450        O451   0.974       .  S
O451       Eu469   2.360       .  S
O451       Eu471   2.355       .  S
O452        C475   1.294       .  A
O452       Eu468   2.470       .  S
O453        C476   1.295       .  A
O453       Eu469   2.475       .  S
O454        C477   1.292       .  A
O454       Eu470   2.462       .  S
O455        C478   1.294       .  A
O455       Eu471   2.469       .  S
O456        C479   1.290       .  A
O456       Eu471   2.451       .  S
O457        C480   1.292       .  A
O457       Eu470   2.459       .  S
O458        C481   1.293       .  A
O458       Eu472   2.466       .  S
O459        C482   1.292       .  A
O459       Eu472   2.459       .  S
O460        C481   1.289       .  A
O460       Eu470   2.445       .  S
O461        C482   1.292       .  A
O461       Eu471   2.466       .  S
O462        C477   1.290       .  A
O462       Eu468   2.445       .  S
O463        C480   1.294       .  A
O463       Eu469   2.477       .  S
O464        C479   1.293       .  A
O464       Eu469   2.460       .  S
O465        C478   1.291       .  A
O465       Eu468   2.465       .  S
O466        C475   1.290       .  A
O466       Eu472   2.456       .  S
O467        C476   1.288       .  A
O467       Eu472   2.445       .  S
Eu468       O486   2.350       .  S
Eu468       O474   2.347       .  S
Eu469       O473   2.350       .  S
Eu469       O484   2.355       .  S
Eu470       O484   2.359       .  S
Eu470       O474   2.353       .  S
Eu471       O473   2.355       .  S
Eu471       O486   2.359       .  S
Eu472       O473   2.347       .  S
Eu472       O484   2.362       .  S
Eu472       O486   2.360       .  S
Eu472       O474   2.343       .  S
C475       C1822   1.495       .  S
C476       C1198   1.496       .  S
C477       C1721   1.489       .  S
C478       C1102   1.499       .  S
C479       C1774   1.490       .  S
C480        C646   1.493       .  S
C481        C742   1.481       .  S
C482       C1246   1.488       .  S
H483        O484   0.965       .  S
H485        O486   0.980       .  S
O487        C498   1.293   1_545  A
O487       Eu523   2.472       .  S
O488        C499   1.291       .  A
O488       Eu522   2.450       .  S
O489        C500   1.289       .  A
O489       Eu495   2.445       .  S
O490        C501   1.289       .  A
O490       Eu495   2.437       .  S
O491        C501   1.292       .  A
O491       Eu525   2.463       .  S
O492        C500   1.290       .  A
O492       Eu524   2.452       .  S
O493        C499   1.288       .  A
O493       Eu495   2.443       .  S
O494        C498   1.290       .  A
O494       Eu495   2.461       .  S
Eu495       O505   2.350       .  S
Eu495       O497   2.341       .  S
Eu495       O496   2.349       .  S
Eu495       O503   2.355       .  S
O496       Eu525   2.343       .  S
O496       Eu522   2.344       .  S
O497       Eu523   2.344   1_565  S
O497       Eu524   2.353       .  S
C498       C2206   1.484       .  S
C499       C1438   1.487       .  S
C500        C905   1.471       .  S
C501       C1582   1.477       .  S
H502        O503   0.967       .  S
O503       Eu524   2.351       .  S
O503       Eu522   2.354       .  S
H504        O505   0.974       .  S
O505       Eu523   2.345   1_565  S
O505       Eu525   2.361       .  S
O506        C529   1.290       .  A
O506       Eu522   2.452       .  S
O507        C530   1.289       .  A
O507       Eu523   2.446   1_455  S
O508        C531   1.293       .  A
O508       Eu524   2.464       .  S
O509        C532   1.290       .  A
O509       Eu525   2.455       .  S
O510        C533   1.289       .  A
O510       Eu525   2.442       .  S
O511        C534   1.291       .  A
O511       Eu524   2.454   1_545  S
O512        C535   1.293       .  A
O512       Eu526   2.466   1_545  S
O513        C536   1.292       .  A
O513       Eu526   2.459   1_455  S
O514        C535   1.289       .  A
O514       Eu524   2.445   1_545  S
O515        C536   1.293   1_655  A
O515       Eu525   2.470       .  S
O516        C531   1.291       .  A
O516       Eu522   2.461       .  S
O517        C534   1.291       .  A
O517       Eu523   2.456       .  S
O518        C533   1.291   1_545  A
O518       Eu523   2.454       .  S
O519        C532   1.289       .  A
O519       Eu522   2.451       .  S
O520        C529   1.295       .  A
O520       Eu526   2.477       .  S
O521        C530   1.293       .  A
O521       Eu526   2.463   1_445  S
Eu522       O540   2.349       .  S
Eu522       O528   2.348       .  S
Eu523       O527   2.355   1_545  S
Eu523       O538   2.358   1_545  S
Eu524       O538   2.357       .  S
Eu524       O528   2.353       .  S
Eu525       O527   2.346       .  S
Eu525       O540   2.353       .  S
Eu526       O527   2.355       .  S
Eu526       O538   2.354       .  S
Eu526       O540   2.351       .  S
Eu526       O528   2.352       .  S
C529       C1846   1.494       .  S
C530       C1462   1.479       .  S
C531       C1049   1.490       .  S
C532       C2038   1.466       .  S
C533        C953   1.473   1_655  S
C534       C2014   1.481       .  S
C535       C1270   1.479       .  S
C536        C862   1.492       .  S
H537        O538   0.966   1_545  S
H539        O540   0.971       .  S
C541        C542   1.408       .  A
C541        C546   1.402       .  A
C541        C555   1.443   1_655  S
C542        C547   1.487       .  S
C542        C543   1.404       .  A
C543        C544   1.403       .  A
C543        H562   1.085       .  S
C544        C545   1.415       .  A
C544        C556   1.444       .  S
C545        C546   1.408       .  A
C546        H561   1.083       .  S
C547        C548   1.401       .  A
C547        C552   1.413   1_655  A
C548        C549   1.398       .  A
C548        H563   1.085       .  S
C549        C550   1.415       .  A
C549        C553   1.445       .  S
C550        C551   1.405   1_655  A
C551        C552   1.406       .  A
C551        H564   1.085       .  S
C552        C554   1.443       .  S
C553        N557   1.157       .  T
C554        N558   1.157       .  T
C555        N560   1.157       .  T
C556        N559   1.157       .  T
C565        C566   1.407       .  A
C565        C570   1.398       .  A
C565        C579   1.444       .  S
C566        C571   1.478       .  S
C566        C567   1.401       .  A
C567        C568   1.402       .  A
C567        H586   1.085       .  S
C568        C569   1.414       .  A
C568        C580   1.443       .  S
C569        C570   1.406       .  A
C570        H585   1.085       .  S
C571        C572   1.400       .  A
C571        C576   1.408       .  A
C572        C573   1.401       .  A
C572        H587   1.085       .  S
C573        C574   1.416       .  A
C573        C577   1.443       .  S
C574        C575   1.406       .  A
C575        C576   1.396       .  A
C575        H588   1.085       .  S
C576        C578   1.445       .  S
C577        N581   1.157       .  T
C578        N582   1.157       .  T
C579        N584   1.157       .  T
C580        N583   1.157       .  T
C589        C590   1.412       .  A
C589        C594   1.412       .  A
C589        C603   1.444       .  S
C590        C595   1.494       .  S
C590        C591   1.398       .  A
C591        C592   1.400       .  A
C591        H610   1.085       .  S
C592        C593   1.423       .  A
C592        C604   1.444       .  S
C593        C594   1.414       .  A
C594        H609   1.084       .  S
C595        C596   1.403       .  A
C595        C600   1.412       .  A
C596        C597   1.402       .  A
C596        H611   1.085       .  S
C597        C598   1.414       .  A
C597        C601   1.445       .  S
C598        C599   1.406       .  A
C599        C600   1.407       .  A
C599        H612   1.085       .  S
C600        C602   1.443       .  S
C601        N605   1.157       .  T
C602        N606   1.157       .  T
C603        N608   1.158       .  T
C604        N607   1.157       .  T
C613        C614   1.411       .  A
C613        C618   1.403       .  A
C613        C627   1.443       .  S
C614        C619   1.487       .  S
C614        C615   1.402       .  A
C615        C616   1.398       .  A
C615        H634   1.085       .  S
C616        C617   1.415       .  A
C616        C628   1.445       .  S
C617        C618   1.407       .  A
C618        H633   1.085       .  S
C619        C620   1.400       .  A
C619        C624   1.411       .  A
C620        C621   1.399       .  A
C620        H635   1.085       .  S
C621        C622   1.417       .  A
C621        C625   1.445       .  S
C622        C623   1.407       .  A
C623        C624   1.407       .  A
C623        H636   1.084       .  S
C624        C626   1.444       .  S
C625        N629   1.157       .  T
C626        N630   1.157       .  T
C627        N632   1.157       .  T
C628        N631   1.157       .  T
C637        C638   1.412   1_655  A
C637        C642   1.401       .  A
C637        C651   1.446       .  S
C638        C643   1.491       .  S
C638        C639   1.403       .  A
C639        C640   1.403   1_455  A
C639        H658   1.085       .  S
C640        C641   1.415       .  A
C640        C652   1.443       .  S
C641        C642   1.410       .  A
C642        H657   1.085       .  S
C643        C644   1.403       .  A
C643        C648   1.411       .  A
C644        C645   1.404       .  A
C644        H659   1.085       .  S
C645        C646   1.417       .  A
C645        C649   1.443       .  S
C646        C647   1.409       .  A
C647        C648   1.400       .  A
C647        H660   1.085       .  S
C648        C650   1.446       .  S
C649        N653   1.157       .  T
C650        N654   1.158       .  T
C651        N656   1.158       .  T
C652        N655   1.157       .  T
C661        C662   1.410       .  A
C661        C666   1.402       .  A
C661        C675   1.444       .  S
C662        C667   1.476       .  S
C662        C663   1.399       .  A
C663        C664   1.394       .  A
C663        H682   1.085       .  S
C664        C665   1.414       .  A
C664        C676   1.445       .  S
C665        C666   1.405       .  A
C666        H681   1.085       .  S
C667        C668   1.399       .  A
C667        C672   1.407       .  A
C668        C669   1.395       .  A
C668        H683   1.085       .  S
C669        C670   1.416       .  A
C669        C673   1.445       .  S
C670        C671   1.408       .  A
C671        C672   1.400       .  A
C671        H684   1.085       .  S
C672        C674   1.444   1_554  S
C673        N677   1.157       .  T
C674        N678   1.157       .  T
C675        N680   1.157       .  T
C676        N679   1.157   1_655  T
C685        C686   1.408       .  A
C685        C690   1.400       .  A
C685        C699   1.443       .  S
C686        C691   1.482       .  S
C686        C687   1.401       .  A
C687        C688   1.402       .  A
C687        H706   1.085       .  S
C688        C689   1.417       .  A
C688        C700   1.445       .  S
C689        C690   1.405       .  A
C690        H705   1.085       .  S
C691        C692   1.402       .  A
C691        C696   1.411       .  A
C692        C693   1.399       .  A
C692        H707   1.085   1_554  S
C693        C694   1.411       .  A
C693        C697   1.445   1_554  S
C694        C695   1.402       .  A
C695        C696   1.403       .  A
C695        H708   1.085       .  S
C696        C698   1.443       .  S
C697        N701   1.157       .  T
C698        N702   1.157       .  T
C699        N704   1.157       .  T
C700        N703   1.157       .  T
C709        C710   1.406       .  A
C709        C714   1.397       .  A
C709        C723   1.445       .  S
C710        C715   1.479       .  S
C710        C711   1.402       .  A
C711        C712   1.405       .  A
C711        H730   1.085       .  S
C712        C713   1.414       .  A
C712        C724   1.443       .  S
C713        C714   1.407       .  A
C714        H729   1.085       .  S
C715        C716   1.401       .  A
C715        C720   1.409       .  A
C716        C717   1.400       .  A
C716        H731   1.085       .  S
C717        C718   1.411       .  A
C717        C721   1.444       .  S
C718        C719   1.404       .  A
C719        C720   1.399       .  A
C719        H732   1.085       .  S
C720        C722   1.443       .  S
C721        N725   1.157       .  T
C722        N726   1.157       .  T
C723        N728   1.157       .  T
C724        N727   1.157       .  T
C733        C734   1.407       .  A
C733        C738   1.401       .  A
C733        C747   1.445       .  S
C734        C739   1.484       .  S
C734        C735   1.401       .  A
C735        C736   1.404       .  A
C735        H754   1.085       .  S
C736        C737   1.416       .  A
C736        C748   1.442       .  S
C737        C738   1.410       .  A
C738        H753   1.085       .  S
C739        C740   1.402       .  A
C739        C744   1.408       .  A
C740        C741   1.399   1_655  A
C740        H755   1.085       .  S
C741        C742   1.415       .  A
C741        C745   1.445       .  S
C742        C743   1.406       .  A
C743        C744   1.402   1_455  A
C743        H756   1.084       .  S
C744        C746   1.442       .  S
C745        N749   1.157       .  T
C746        N750   1.157       .  T
C747        N752   1.158       .  T
C748        N751   1.157       .  T
C757        C758   1.409       .  A
C757        C762   1.399       .  A
C757        C771   1.445       .  S
C758        C763   1.483       .  S
C758        C759   1.402       .  A
C759        C760   1.403       .  A
C759        H778   1.085       .  S
C760        C761   1.416       .  A
C760        C772   1.444       .  S
C761        C762   1.408       .  A
C762        H777   1.085       .  S
C763        C764   1.401       .  A
C763        C768   1.408       .  A
C764        C765   1.403       .  A
C764        H779   1.085       .  S
C765        C766   1.416       .  A
C765        C769   1.443       .  S
C766        C767   1.409       .  A
C767        C768   1.400       .  A
C767        H780   1.084       .  S
C768        C770   1.445       .  S
C769        N773   1.157       .  T
C770        N774   1.157       .  T
C771        N776   1.157       .  T
C772        N775   1.157       .  T
C781        C782   1.414       .  A
C781        C786   1.402       .  A
C781        C795   1.444       .  S
C782        C787   1.493       .  S
C782        C783   1.405       .  A
C783        C784   1.404       .  A
C783        H802   1.085       .  S
C784        C785   1.413       .  A
C784        C796   1.444       .  S
C785        C786   1.403       .  A
C786        H801   1.085       .  S
C787        C788   1.399       .  A
C787        C792   1.410       .  A
C788        C789   1.399       .  A
C788        H803   1.086       .  S
C789        C790   1.424       .  A
C789        C793   1.444       .  S
C790        C791   1.412       .  A
C791        C792   1.407       .  A
C791        H804   1.084       .  S
C792        C794   1.443       .  S
C793        N797   1.157       .  T
C794        N798   1.157       .  T
C795        N800   1.157       .  T
C796        N799   1.157       .  T
C805        C806   1.412       .  A
C805        C810   1.401       .  A
C805        C819   1.443       .  S
C806        C811   1.488       .  S
C806        C807   1.406       .  A
C807        C808   1.401       .  A
C807        H826   1.085       .  S
C808        C809   1.407       .  A
C808        C820   1.443       .  S
C809        C810   1.402       .  A
C810        H825   1.085       .  S
C811        C812   1.402       .  A
C811        C816   1.412       .  A
C812        C813   1.400       .  A
C812        H827   1.085       .  S
C813        C814   1.414       .  A
C813        C817   1.443       .  S
C814        C815   1.405       .  A
C815        C816   1.405       .  A
C815        H828   1.084       .  S
C816        C818   1.444       .  S
C817        N821   1.157       .  T
C818        N822   1.157       .  T
C819        N824   1.157       .  T
C820        N823   1.157       .  T
C829        C830   1.408       .  A
C829        C834   1.402       .  A
C829        C843   1.444       .  S
C830        C835   1.485       .  S
C830        C831   1.402       .  A
C831        C832   1.404       .  A
C831        H850   1.085       .  S
C832        C833   1.415       .  A
C832        C844   1.443       .  S
C833        C834   1.407       .  A
C834        H849   1.085       .  S
C835        C836   1.399       .  A
C835        C840   1.408       .  A
C836        C837   1.398       .  A
C836        H851   1.085       .  S
C837        C838   1.419       .  A
C837        C841   1.445       .  S
C838        C839   1.409       .  A
C839        C840   1.405       .  A
C839        H852   1.084       .  S
C840        C842   1.443       .  S
C841        N845   1.157       .  T
C842        N846   1.157       .  T
C843        N848   1.157       .  T
C844        N847   1.157       .  T
C853        C854   1.412       .  A
C853        C858   1.400       .  A
C853        C867   1.443       .  S
C854        C859   1.481       .  S
C854        C855   1.403       .  A
C855        C856   1.397       .  A
C855        H874   1.085       .  S
C856        C857   1.406       .  A
C856        C868   1.443       .  S
C857        C858   1.400       .  A
C858        H873   1.085       .  S
C859        C860   1.400       .  A
C859        C864   1.408       .  A
C860        C861   1.399       .  A
C860        H875   1.085       .  S
C861        C862   1.419       .  A
C861        C865   1.444       .  S
C862        C863   1.410       .  A
C863        C864   1.403       .  A
C863        H876   1.084       .  S
C864        C866   1.445       .  S
C865        N869   1.157       .  T
C866        N870   1.157   1_565  T
C867        N872   1.157       .  T
C868        N871   1.157   1_565  T
C877        C878   1.411       .  A
C877        C882   1.400       .  A
C877        C891   1.444       .  S
C878        C883   1.484       .  S
C878        C879   1.401       .  A
C879        C880   1.397       .  A
C879        H898   1.085       .  S
C880        C881   1.416       .  A
C880        C892   1.445       .  S
C881        C882   1.405       .  A
C882        H897   1.085       .  S
C883        C884   1.404       .  A
C883        C888   1.410       .  A
C884        C885   1.402   1_545  A
C884        H899   1.085       .  S
C885        C886   1.413       .  A
C885        C889   1.443       .  S
C886        C887   1.406   1_565  A
C887        C888   1.396       .  A
C887        H900   1.085       .  S
C888        C890   1.445       .  S
C889        N893   1.157       .  T
C890        N894   1.157       .  T
C891        N896   1.157       .  T
C892        N895   1.157       .  T
C901        C902   1.409       .  A
C901        C906   1.398       .  A
C901        C915   1.443       .  S
C902        C907   1.480       .  S
C902        C903   1.404       .  A
C903        C904   1.399       .  A
C903        H922   1.085       .  S
C904        C905   1.410       .  A
C904        C916   1.445   1_565  S
C905        C906   1.403       .  A
C906        H921   1.084       .  S
C907        C908   1.404       .  A
C907        C912   1.407       .  A
C908        C909   1.405       .  A
C908        H923   1.085       .  S
C909        C910   1.418       .  A
C909        C913   1.444       .  S
C910        C911   1.407       .  A
C911        C912   1.391       .  A
C911        H924   1.085       .  S
C912        C914   1.445       .  S
C913        N917   1.158       .  T
C914        N918   1.157       .  T
C915        N920   1.157       .  T
C916        N919   1.157       .  T
C925        C926   1.409       .  A
C925        C930   1.395       .  A
C925        C939   1.444       .  S
C926        C931   1.478       .  S
C926        C927   1.403       .  A
C927        C928   1.402       .  A
C927        H946   1.085       .  S
C928        C929   1.409       .  A
C928        C940   1.443   1_565  S
C929        C930   1.402       .  A
C930        H945   1.084       .  S
C931        C932   1.399       .  A
C931        C936   1.407       .  A
C932        C933   1.398       .  A
C932        H947   1.085       .  S
C933        C934   1.420       .  A
C933        C937   1.445       .  S
C934        C935   1.409       .  A
C935        C936   1.401       .  A
C935        H948   1.084       .  S
C936        C938   1.444       .  S
C937        N941   1.158       .  T
C938        N942   1.157       .  T
C939        N944   1.157       .  T
C940        N943   1.157       .  T
C949        C950   1.409       .  A
C949        C954   1.398       .  A
C949        C963   1.443       .  S
C950        C955   1.477       .  S
C950        C951   1.402   1_545  A
C951        C952   1.397       .  A
C951        H970   1.085       .  S
C952        C953   1.413       .  A
C952        C964   1.445       .  S
C953        C954   1.404   1_565  A
C954        H969   1.085   1_455  S
C955        C956   1.397   1_545  A
C955        C960   1.409       .  A
C956        C957   1.394       .  A
C956        H971   1.086       .  S
C957        C958   1.417   1_565  A
C957        C961   1.444       .  S
C958        C959   1.407       .  A
C959        C960   1.403       .  A
C959        H972   1.084       .  S
C960        C962   1.443       .  S
C961        N965   1.157       .  T
C962        N966   1.157       .  T
C963        N968   1.157       .  T
C964        N967   1.157       .  T
C973        C974   1.409       .  A
C973        C978   1.401       .  A
C973        C987   1.444       .  S
C974        C979   1.474       .  S
C974        C975   1.399       .  A
C975        C976   1.396       .  A
C975        H994   1.085       .  S
C976        C977   1.412       .  A
C976        C988   1.444       .  S
C977        C978   1.404       .  A
C978        H993   1.085       .  S
C979        C980   1.400       .  A
C979        C984   1.407       .  A
C980        C981   1.400       .  A
C980        H995   1.085       .  S
C981        C982   1.418       .  A
C981        C985   1.445       .  S
C982        C983   1.404       .  A
C983        C984   1.395       .  A
C983        H996   1.085       .  S
C984        C986   1.444       .  S
C985        N989   1.158       .  T
C986        N990   1.157       .  T
C987        N992   1.157       .  T
C988        N991   1.157       .  T
C997        C998   1.406       .  A
C997       C1002   1.398       .  A
C997       C1011   1.445       .  S
C998       C1003   1.479       .  S
C998        C999   1.400       .  A
C999       C1000   1.402       .  A
C999       H1018   1.085       .  S
C1000      C1001   1.417       .  A
C1000      C1012   1.441       .  S
C1001      C1002   1.409       .  A
C1002      H1017   1.084       .  S
C1003      C1004   1.400       .  A
C1003      C1008   1.409       .  A
C1004      C1005   1.400       .  A
C1004      H1019   1.085       .  S
C1005      C1006   1.413       .  A
C1005      C1009   1.443       .  S
C1006      C1007   1.407       .  A
C1007      C1008   1.401       .  A
C1007      H1020   1.085       .  S
C1008      C1010   1.445       .  S
C1009      N1013   1.157       .  T
C1010      N1014   1.157       .  T
C1011      N1016   1.157       .  T
C1012      N1015   1.156       .  T
C1021      C1022   1.411       .  A
C1021      C1026   1.402       .  A
C1021      C1035   1.445       .  S
C1022      C1027   1.485   1_545  S
C1022      C1023   1.402       .  A
C1023      C1024   1.402       .  A
C1023      H1042   1.085   1_545  S
C1024      C1025   1.413       .  A
C1024      C1036   1.444       .  S
C1025      C1026   1.405       .  A
C1026      H1041   1.085       .  S
C1027      C1028   1.397       .  A
C1027      C1032   1.410       .  A
C1028      C1029   1.395       .  A
C1028      H1043   1.086       .  S
C1029      C1030   1.422       .  A
C1029      C1033   1.445       .  S
C1030      C1031   1.410       .  A
C1031      C1032   1.406       .  A
C1031      H1044   1.084       .  S
C1032      C1034   1.443       .  S
C1033      N1037   1.158       .  T
C1034      N1038   1.157       .  T
C1035      N1040   1.157       .  T
C1036      N1039   1.157       .  T
C1045      C1046   1.411       .  A
C1045      C1050   1.402       .  A
C1045      C1059   1.444       .  S
C1046      C1051   1.487       .  S
C1046      C1047   1.400       .  A
C1047      C1048   1.402       .  A
C1047      H1066   1.085       .  S
C1048      C1049   1.418       .  A
C1048      C1060   1.443       .  S
C1049      C1050   1.407       .  A
C1050      H1065   1.085       .  S
C1051      C1052   1.399       .  A
C1051      C1056   1.412       .  A
C1052      C1053   1.397       .  A
C1052      H1067   1.085       .  S
C1053      C1054   1.417       .  A
C1053      C1057   1.445       .  S
C1054      C1055   1.407       .  A
C1055      C1056   1.407       .  A
C1055      H1068   1.084       .  S
C1056      C1058   1.443       .  S
C1057      N1061   1.157       .  T
C1058      N1062   1.157       .  T
C1059      N1064   1.157       .  T
C1060      N1063   1.157       .  T
C1069      C1070   1.407       .  A
C1069      C1074   1.404       .  A
C1069      C1083   1.444       .  S
C1070      C1075   1.479       .  S
C1070      C1071   1.398       .  A
C1071      C1072   1.396       .  A
C1071      H1090   1.085       .  S
C1072      C1073   1.418       .  A
C1072      C1084   1.444       .  S
C1073      C1074   1.411       .  A
C1074      H1089   1.084       .  S
C1075      C1076   1.400       .  A
C1075      C1080   1.407       .  A
C1076      C1077   1.403       .  A
C1076      H1091   1.085       .  S
C1077      C1078   1.416       .  A
C1077      C1081   1.444       .  S
C1078      C1079   1.406       .  A
C1079      C1080   1.398       .  A
C1079      H1092   1.085       .  S
C1080      C1082   1.445       .  S
C1081      N1085   1.157       .  T
C1082      N1086   1.157       .  T
C1083      N1088   1.157       .  T
C1084      N1087   1.157       .  T
C1093      C1094   1.411       .  A
C1093      C1098   1.398       .  A
C1093      C1107   1.444       .  S
C1094      C1099   1.492       .  S
C1094      C1095   1.405       .  A
C1095      C1096   1.407       .  A
C1095      H1114   1.085       .  S
C1096      C1097   1.417       .  A
C1096      C1108   1.444       .  S
C1097      C1098   1.405       .  A
C1098      H1113   1.085       .  S
C1099      C1100   1.402       .  A
C1099      C1104   1.411       .  A
C1100      C1101   1.406       .  A
C1100      H1115   1.085       .  S
C1101      C1102   1.421       .  A
C1101      C1105   1.443       .  S
C1102      C1103   1.409       .  A
C1103      C1104   1.401       .  A
C1103      H1116   1.085       .  S
C1104      C1106   1.444       .  S
C1105      N1109   1.157       .  T
C1106      N1110   1.157       .  T
C1107      N1112   1.157       .  T
C1108      N1111   1.158       .  T
C1117      C1118   1.408       .  A
C1117      C1122   1.394       .  A
C1117      C1131   1.444   1_545  S
C1118      C1123   1.475       .  S
C1118      C1119   1.401       .  A
C1119      C1120   1.399       .  A
C1119      H1138   1.085       .  S
C1120      C1121   1.412       .  A
C1120      C1132   1.444       .  S
C1121      C1122   1.405       .  A
C1122      H1137   1.085       .  S
C1123      C1124   1.396       .  A
C1123      C1128   1.408   1_545  A
C1124      C1125   1.398       .  A
C1124      H1139   1.085       .  S
C1125      C1126   1.418   1_545  A
C1125      C1129   1.443       .  S
C1126      C1127   1.408       .  A
C1127      C1128   1.401       .  A
C1127      H1140   1.085       .  S
C1128      C1130   1.445       .  S
C1129      N1133   1.157       .  T
C1130      N1134   1.157       .  T
C1131      N1136   1.157       .  T
C1132      N1135   1.157       .  T
C1141      C1142   1.410       .  A
C1141      C1146   1.402       .  A
C1141      C1155   1.443       .  S
C1142      C1147   1.480       .  S
C1142      C1143   1.399       .  A
C1143      C1144   1.394       .  A
C1143      H1162   1.085       .  S
C1144      C1145   1.418       .  A
C1144      C1156   1.446       .  S
C1145      C1146   1.404       .  A
C1146      H1161   1.085       .  S
C1147      C1148   1.400       .  A
C1147      C1152   1.409       .  A
C1148      C1149   1.396       .  A
C1148      H1163   1.085       .  S
C1149      C1150   1.414       .  A
C1149      C1153   1.445       .  S
C1150      C1151   1.409       .  A
C1151      C1152   1.403       .  A
C1151      H1164   1.085       .  S
C1152      C1154   1.445       .  S
C1153      N1157   1.157       .  T
C1154      N1158   1.157       .  T
C1155      N1160   1.157       .  T
C1156      N1159   1.158       .  T
C1165      C1166   1.409       .  A
C1165      C1170   1.399       .  A
C1165      C1179   1.444       .  S
C1166      C1171   1.478       .  S
C1166      C1167   1.400       .  A
C1167      C1168   1.400       .  A
C1167      H1186   1.085       .  S
C1168      C1169   1.414       .  A
C1168      C1180   1.445       .  S
C1169      C1170   1.404       .  A
C1170      H1185   1.085       .  S
C1171      C1172   1.401       .  A
C1171      C1176   1.407       .  A
C1172      C1173   1.399       .  A
C1172      H1187   1.085       .  S
C1173      C1174   1.413       .  A
C1173      C1177   1.445       .  S
C1174      C1175   1.406       .  A
C1175      C1176   1.400       .  A
C1175      H1188   1.085       .  S
C1176      C1178   1.444       .  S
C1177      N1181   1.157       .  T
C1178      N1182   1.157       .  T
C1179      N1184   1.157       .  T
C1180      N1183   1.157       .  T
C1189      C1190   1.411       .  A
C1189      C1194   1.402       .  A
C1189      C1203   1.444       .  S
C1190      C1195   1.484       .  S
C1190      C1191   1.402       .  A
C1191      C1192   1.399       .  A
C1191      H1210   1.085       .  S
C1192      C1193   1.412       .  A
C1192      C1204   1.444       .  S
C1193      C1194   1.405       .  A
C1194      H1209   1.085       .  S
C1195      C1196   1.399       .  A
C1195      C1200   1.408       .  A
C1196      C1197   1.398   1_655  A
C1196      H1211   1.085       .  S
C1197      C1198   1.423       .  A
C1197      C1201   1.445       .  S
C1198      C1199   1.411       .  A
C1199      C1200   1.403   1_455  A
C1199      H1212   1.084       .  S
C1200      C1202   1.443       .  S
C1201      N1205   1.158       .  T
C1202      N1206   1.157       .  T
C1203      N1208   1.157       .  T
C1204      N1207   1.157       .  T
C1213      C1214   1.409       .  A
C1213      C1218   1.403       .  A
C1213      C1227   1.443       .  S
C1214      C1219   1.484       .  S
C1214      C1215   1.402       .  A
C1215      C1216   1.398       .  A
C1215      H1234   1.085       .  S
C1216      C1217   1.412       .  A
C1216      C1228   1.444       .  S
C1217      C1218   1.406       .  A
C1218      H1233   1.085       .  S
C1219      C1220   1.404       .  A
C1219      C1224   1.408       .  A
C1220      C1221   1.405       .  A
C1220      H1235   1.085       .  S
C1221      C1222   1.417       .  A
C1221      C1225   1.444       .  S
C1222      C1223   1.406       .  A
C1223      C1224   1.395       .  A
C1223      H1236   1.085       .  S
C1224      C1226   1.445       .  S
C1225      N1229   1.158       .  T
C1226      N1230   1.157       .  T
C1227      N1232   1.157       .  T
C1228      N1231   1.157       .  T
C1237      C1238   1.410       .  A
C1237      C1242   1.403       .  A
C1237      C1251   1.443       .  S
C1238      C1243   1.482       .  S
C1238      C1239   1.401       .  A
C1239      C1240   1.398       .  A
C1239      H1258   1.085       .  S
C1240      C1241   1.412       .  A
C1240      C1252   1.444       .  S
C1241      C1242   1.405       .  A
C1242      H1257   1.085       .  S
C1243      C1244   1.399       .  A
C1243      C1248   1.409       .  A
C1244      C1245   1.402       .  A
C1244      H1259   1.085       .  S
C1245      C1246   1.417       .  A
C1245      C1249   1.441       .  S
C1246      C1247   1.407       .  A
C1247      C1248   1.400       .  A
C1247      H1260   1.085       .  S
C1248      C1250   1.444       .  S
C1249      N1253   1.156       .  T
C1250      N1254   1.157       .  T
C1251      N1256   1.157       .  T
C1252      N1255   1.157   1_455  T
C1261      C1262   1.410       .  A
C1261      C1266   1.406   1_655  A
C1261      C1275   1.443       .  S
C1262      C1267   1.483       .  S
C1262      C1263   1.399   1_655  A
C1263      C1264   1.395       .  A
C1263      H1282   1.085       .  S
C1264      C1265   1.419       .  A
C1264      C1276   1.446       .  S
C1265      C1266   1.407       .  A
C1266      H1281   1.084   1_455  S
C1267      C1268   1.403       .  A
C1267      C1272   1.411   1_655  A
C1268      C1269   1.403       .  A
C1268      H1283   1.085       .  S
C1269      C1270   1.416       .  A
C1269      C1273   1.445       .  S
C1270      C1271   1.403       .  A
C1271      C1272   1.397   1_655  A
C1271      H1284   1.085   1_655  S
C1272      C1274   1.444       .  S
C1273      N1277   1.157   1_545  T
C1274      N1278   1.157       .  T
C1275      N1280   1.157       .  T
C1276      N1279   1.157       .  T
C1285      C1286   1.406       .  A
C1285      C1290   1.394       .  A
C1285      C1299   1.444       .  S
C1286      C1291   1.478       .  S
C1286      C1287   1.403       .  A
C1287      C1288   1.403       .  A
C1287      H1306   1.085       .  S
C1288      C1289   1.415       .  A
C1288      C1300   1.445       .  S
C1289      C1290   1.404       .  A
C1290      H1305   1.085       .  S
C1291      C1292   1.401       .  A
C1291      C1296   1.406       .  A
C1292      C1293   1.400       .  A
C1292      H1307   1.085       .  S
C1293      C1294   1.415       .  A
C1293      C1297   1.444       .  S
C1294      C1295   1.407       .  A
C1295      C1296   1.400       .  A
C1295      H1308   1.085       .  S
C1296      C1298   1.444       .  S
C1297      N1301   1.157       .  T
C1298      N1302   1.157       .  T
C1299      N1304   1.157       .  T
C1300      N1303   1.158       .  T
C1309      C1310   1.411       .  A
C1309      C1314   1.400       .  A
C1309      C1323   1.445       .  S
C1310      C1315   1.484       .  S
C1310      C1311   1.401       .  A
C1311      C1312   1.402       .  A
C1311      H1330   1.085       .  S
C1312      C1313   1.415       .  A
C1312      C1324   1.444   1_554  S
C1313      C1314   1.405       .  A
C1314      H1329   1.085       .  S
C1315      C1316   1.404       .  A
C1315      C1320   1.408       .  A
C1316      C1317   1.405       .  A
C1316      H1331   1.085       .  S
C1317      C1318   1.415       .  A
C1317      C1321   1.444       .  S
C1318      C1319   1.408       .  A
C1319      C1320   1.396       .  A
C1319      H1332   1.085       .  S
C1320      C1322   1.445       .  S
C1321      N1325   1.157   1_565  T
C1322      N1326   1.157       .  T
C1323      N1328   1.157       .  T
C1324      N1327   1.157       .  T
C1333      C1334   1.409       .  A
C1333      C1338   1.402       .  A
C1333      C1347   1.443       .  S
C1334      C1339   1.486       .  S
C1334      C1335   1.403       .  A
C1335      C1336   1.404       .  A
C1335      H1354   1.085       .  S
C1336      C1337   1.414       .  A
C1336      C1348   1.444       .  S
C1337      C1338   1.404       .  A
C1338      H1353   1.081       .  S
C1339      C1340   1.400       .  A
C1339      C1344   1.410       .  A
C1340      C1341   1.400       .  A
C1340      H1355   1.085       .  S
C1341      C1342   1.417       .  A
C1341      C1345   1.446       .  S
C1342      C1343   1.405       .  A
C1343      C1344   1.406       .  A
C1343      H1356   1.084       .  S
C1344      C1346   1.442       .  S
C1345      N1349   1.157       .  T
C1346      N1350   1.157       .  T
C1347      N1352   1.157       .  T
C1348      N1351   1.157       .  T
C1357      C1358   1.407       .  A
C1357      C1362   1.397       .  A
C1357      C1371   1.445       .  S
C1358      C1363   1.486       .  S
C1358      C1359   1.403       .  A
C1359      C1360   1.407       .  A
C1359      H1378   1.085       .  S
C1360      C1361   1.418       .  A
C1360      C1372   1.443   1_545  S
C1361      C1362   1.408       .  A
C1362      H1377   1.085       .  S
C1363      C1364   1.400       .  A
C1363      C1368   1.409       .  A
C1364      C1365   1.404       .  A
C1364      H1379   1.085       .  S
C1365      C1366   1.419       .  A
C1365      C1369   1.444       .  S
C1366      C1367   1.407       .  A
C1367      C1368   1.402       .  A
C1367      H1380   1.085       .  S
C1368      C1370   1.445       .  S
C1369      N1373   1.157       .  T
C1370      N1374   1.157       .  T
C1371      N1376   1.157       .  T
C1372      N1375   1.157       .  T
C1381      C1382   1.407       .  A
C1381      C1386   1.396       .  A
C1381      C1395   1.446   1_554  S
C1382      C1387   1.485       .  S
C1382      C1383   1.402       .  A
C1383      C1384   1.406       .  A
C1383      H1402   1.085       .  S
C1384      C1385   1.419       .  A
C1384      C1396   1.443       .  S
C1385      C1386   1.411       .  A
C1386      H1401   1.084   1_554  S
C1387      C1388   1.403       .  A
C1387      C1392   1.411       .  A
C1388      C1389   1.401       .  A
C1388      H1403   1.085       .  S
C1389      C1390   1.411       .  A
C1389      C1393   1.445       .  S
C1390      C1391   1.402       .  A
C1391      C1392   1.399       .  A
C1391      H1404   1.085   1_565  S
C1392      C1394   1.444   1_565  S
C1393      N1397   1.157   1_455  T
C1394      N1398   1.157       .  T
C1395      N1400   1.157       .  T
C1396      N1399   1.157       .  T
C1405      C1406   1.411       .  A
C1405      C1410   1.402       .  A
C1405      C1419   1.446       .  S
C1406      C1411   1.499       .  S
C1406      C1407   1.405       .  A
C1407      C1408   1.407       .  A
C1407      H1426   1.084       .  S
C1408      C1409   1.420       .  A
C1408      C1420   1.442       .  S
C1409      C1410   1.411       .  A
C1410      H1425   1.084       .  S
C1411      C1412   1.406       .  A
C1411      C1416   1.416       .  A
C1412      C1413   1.400       .  A
C1412      H1427   1.085       .  S
C1413      C1414   1.409       .  A
C1413      C1417   1.444       .  S
C1414      C1415   1.404       .  A
C1415      C1416   1.407       .  A
C1415      H1428   1.085       .  S
C1416      C1418   1.444       .  S
C1417      N1421   1.157       .  T
C1418      N1422   1.157       .  T
C1419      N1424   1.157       .  T
C1420      N1423   1.157       .  T
C1429      C1430   1.413       .  A
C1429      C1434   1.402       .  A
C1429      C1443   1.443       .  S
C1430      C1435   1.484       .  S
C1430      C1431   1.403       .  A
C1431      C1432   1.399       .  A
C1431      H1450   1.085       .  S
C1432      C1433   1.412       .  A
C1432      C1444   1.444       .  S
C1433      C1434   1.402       .  A
C1434      H1449   1.085       .  S
C1435      C1436   1.403       .  A
C1435      C1440   1.409       .  A
C1436      C1437   1.400       .  A
C1436      H1451   1.085       .  S
C1437      C1438   1.418       .  A
C1437      C1441   1.446       .  S
C1438      C1439   1.407       .  A
C1439      C1440   1.399       .  A
C1439      H1452   1.085       .  S
C1440      C1442   1.442       .  S
C1441      N1445   1.158       .  T
C1442      N1446   1.157       .  T
C1443      N1448   1.157       .  T
C1444      N1447   1.157       .  T
C1453      C1454   1.407       .  A
C1453      C1458   1.394       .  A
C1453      C1467   1.445       .  S
C1454      C1459   1.475       .  S
C1454      C1455   1.400       .  A
C1455      C1456   1.401       .  A
C1455      H1474   1.085       .  S
C1456      C1457   1.415       .  A
C1456      C1468   1.443       .  S
C1457      C1458   1.406       .  A
C1458      H1473   1.085       .  S
C1459      C1460   1.398       .  A
C1459      C1464   1.408       .  A
C1460      C1461   1.399       .  A
C1460      H1475   1.085       .  S
C1461      C1462   1.418       .  A
C1461      C1465   1.444       .  S
C1462      C1463   1.405       .  A
C1463      C1464   1.398       .  A
C1463      H1476   1.085       .  S
C1464      C1466   1.444       .  S
C1465      N1469   1.157       .  T
C1466      N1470   1.157       .  T
C1467      N1472   1.157       .  T
C1468      N1471   1.157       .  T
C1477      C1478   1.411       .  A
C1477      C1482   1.405       .  A
C1477      C1491   1.443       .  S
C1478      C1483   1.490       .  S
C1478      C1479   1.403       .  A
C1479      C1480   1.402       .  A
C1479      H1498   1.085       .  S
C1480      C1481   1.416       .  A
C1480      C1492   1.445       .  S
C1481      C1482   1.406       .  A
C1482      H1497   1.085       .  S
C1483      C1484   1.405       .  A
C1483      C1488   1.408       .  A
C1484      C1485   1.408       .  A
C1484      H1499   1.084       .  S
C1485      C1486   1.415       .  A
C1485      C1489   1.443       .  S
C1486      C1487   1.411       .  A
C1487      C1488   1.401       .  A
C1487      H1500   1.085       .  S
C1488      C1490   1.446       .  S
C1489      N1493   1.157       .  T
C1490      N1494   1.158       .  T
C1491      N1496   1.157       .  T
C1492      N1495   1.157       .  T
C1501      C1502   1.409       .  A
C1501      C1506   1.393       .  A
C1501      C1515   1.446       .  S
C1502      C1507   1.489       .  S
C1502      C1503   1.405       .  A
C1503      C1504   1.405       .  A
C1503      H1522   1.085       .  S
C1504      C1505   1.419       .  A
C1504      C1516   1.443       .  S
C1505      C1506   1.409       .  A
C1506      H1521   1.084       .  S
C1507      C1508   1.403       .  A
C1507      C1512   1.413       .  A
C1508      C1509   1.402       .  A
C1508      H1523   1.085       .  S
C1509      C1510   1.416       .  A
C1509      C1513   1.443       .  S
C1510      C1511   1.403       .  A
C1511      C1512   1.396       .  A
C1511      H1524   1.083       .  S
C1512      C1514   1.446       .  S
C1513      N1517   1.157       .  T
C1514      N1518   1.157       .  T
C1515      N1520   1.157       .  T
C1516      N1519   1.157       .  T
C1525      C1526   1.408       .  A
C1525      C1530   1.398       .  A
C1525      C1539   1.444       .  S
C1526      C1531   1.483       .  S
C1526      C1527   1.403       .  A
C1527      C1528   1.404       .  A
C1527      H1546   1.085       .  S
C1528      C1529   1.416       .  A
C1528      C1540   1.443       .  S
C1529      C1530   1.407       .  A
C1530      H1545   1.085       .  S
C1531      C1532   1.402       .  A
C1531      C1536   1.409   1_655  A
C1532      C1533   1.399   1_655  A
C1532      H1547   1.085       .  S
C1533      C1534   1.416       .  A
C1533      C1537   1.445   1_455  S
C1534      C1535   1.406       .  A
C1535      C1536   1.402       .  A
C1535      H1548   1.085       .  S
C1536      C1538   1.443       .  S
C1537      N1541   1.157       .  T
C1538      N1542   1.157       .  T
C1539      N1544   1.157       .  T
C1540      N1543   1.157       .  T
C1549      C1550   1.409       .  A
C1549      C1554   1.403       .  A
C1549      C1563   1.444       .  S
C1550      C1555   1.483       .  S
C1550      C1551   1.400       .  A
C1551      C1552   1.396       .  A
C1551      H1570   1.085       .  S
C1552      C1553   1.417       .  A
C1552      C1564   1.445       .  S
C1553      C1554   1.409       .  A
C1554      H1569   1.084       .  S
C1555      C1556   1.403       .  A
C1555      C1560   1.410       .  A
C1556      C1557   1.402       .  A
C1556      H1571   1.085       .  S
C1557      C1558   1.413       .  A
C1557      C1561   1.444       .  S
C1558      C1559   1.404       .  A
C1559      C1560   1.398       .  A
C1559      H1572   1.085       .  S
C1560      C1562   1.445       .  S
C1561      N1565   1.157       .  T
C1562      N1566   1.157       .  T
C1563      N1568   1.157       .  T
C1564      N1567   1.157       .  T
C1573      C1574   1.408       .  A
C1573      C1578   1.395       .  A
C1573      C1587   1.444       .  S
C1574      C1579   1.476       .  S
C1574      C1575   1.403       .  A
C1575      C1576   1.403       .  A
C1575      H1594   1.085       .  S
C1576      C1577   1.411       .  A
C1576      C1588   1.443       .  S
C1577      C1578   1.401       .  A
C1578      H1593   1.085       .  S
C1579      C1580   1.401       .  A
C1579      C1584   1.407       .  A
C1580      C1581   1.401       .  A
C1580      H1595   1.085       .  S
C1581      C1582   1.414       .  A
C1581      C1585   1.444       .  S
C1582      C1583   1.406       .  A
C1583      C1584   1.397       .  A
C1583      H1596   1.085       .  S
C1584      C1586   1.445       .  S
C1585      N1589   1.157       .  T
C1586      N1590   1.157       .  T
C1587      N1592   1.157       .  T
C1588      N1591   1.157       .  T
C1597      C1598   1.412       .  A
C1597      C1602   1.406       .  A
C1597      C1611   1.443       .  S
C1598      C1603   1.491       .  S
C1598      C1599   1.402       .  A
C1599      C1600   1.399       .  A
C1599      H1618   1.085       .  S
C1600      C1601   1.417       .  A
C1600      C1612   1.444       .  S
C1601      C1602   1.409       .  A
C1602      H1617   1.084       .  S
C1603      C1604   1.403   1_565  A
C1603      C1608   1.411   1_565  A
C1604      C1605   1.400       .  A
C1604      H1619   1.085       .  S
C1605      C1606   1.417       .  A
C1605      C1609   1.445       .  S
C1606      C1607   1.408       .  A
C1607      C1608   1.404       .  A
C1607      H1620   1.085       .  S
C1608      C1610   1.442   1_545  S
C1609      N1613   1.158       .  T
C1610      N1614   1.157       .  T
C1611      N1616   1.157       .  T
C1612      N1615   1.157       .  T
C1621      C1622   1.411       .  A
C1621      C1626   1.404       .  A
C1621      C1635   1.444       .  S
C1622      C1627   1.489   1_455  S
C1622      C1623   1.403   1_455  A
C1623      C1624   1.404   1_655  A
C1623      H1642   1.084       .  S
C1624      C1625   1.412       .  A
C1624      C1636   1.444   1_455  S
C1625      C1626   1.405       .  A
C1626      H1641   1.084       .  S
C1627      C1628   1.398   1_655  A
C1627      C1632   1.408       .  A
C1628      C1629   1.400   1_455  A
C1628      H1643   1.085       .  S
C1629      C1630   1.423       .  A
C1629      C1633   1.444   1_655  S
C1630      C1631   1.414       .  A
C1631      C1632   1.408       .  A
C1631      H1644   1.084       .  S
C1632      C1634   1.443       .  S
C1633      N1637   1.157       .  T
C1634      N1638   1.157       .  T
C1635      N1640   1.157       .  T
C1636      N1639   1.157       .  T
C1645      C1646   1.408       .  A
C1645      C1650   1.398       .  A
C1645      C1659   1.445       .  S
C1646      C1651   1.476       .  S
C1646      C1647   1.401       .  A
C1647      C1648   1.400       .  A
C1647      H1666   1.085       .  S
C1648      C1649   1.412       .  A
C1648      C1660   1.443       .  S
C1649      C1650   1.405       .  A
C1650      H1665   1.085       .  S
C1651      C1652   1.400       .  A
C1651      C1656   1.406       .  A
C1652      C1653   1.401       .  A
C1652      H1667   1.085       .  S
C1653      C1654   1.419       .  A
C1653      C1657   1.445       .  S
C1654      C1655   1.407       .  A
C1655      C1656   1.395       .  A
C1655      H1668   1.085       .  S
C1656      C1658   1.444       .  S
C1657      N1661   1.158       .  T
C1658      N1662   1.157       .  T
C1659      N1664   1.157       .  T
C1660      N1663   1.157       .  T
C1669      C1670   1.413       .  A
C1669      C1674   1.404       .  A
C1669      C1683   1.443       .  S
C1670      C1675   1.495       .  S
C1670      C1671   1.402       .  A
C1671      C1672   1.400       .  A
C1671      H1690   1.085       .  S
C1672      C1673   1.421       .  A
C1672      C1684   1.446       .  S
C1673      C1674   1.407       .  A
C1674      H1689   1.084       .  S
C1675      C1676   1.406       .  A
C1675      C1680   1.414       .  A
C1676      C1677   1.403       .  A
C1676      H1691   1.084       .  S
C1677      C1678   1.414       .  A
C1677      C1681   1.443       .  S
C1678      C1679   1.407       .  A
C1679      C1680   1.399       .  A
C1679      H1692   1.085       .  S
C1680      C1682   1.445       .  S
C1681      N1685   1.157       .  T
C1682      N1686   1.158       .  T
C1683      N1688   1.157       .  T
C1684      N1687   1.158       .  T
C1693      C1694   1.408       .  A
C1693      C1698   1.396       .  A
C1693      C1707   1.446       .  S
C1694      C1699   1.480       .  S
C1694      C1695   1.401       .  A
C1695      C1696   1.401       .  A
C1695      H1714   1.085       .  S
C1696      C1697   1.417       .  A
C1696      C1708   1.443       .  S
C1697      C1698   1.408       .  A
C1698      H1713   1.085       .  S
C1699      C1700   1.400       .  A
C1699      C1704   1.409       .  A
C1700      C1701   1.394       .  A
C1700      H1715   1.085       .  S
C1701      C1702   1.416       .  A
C1701      C1705   1.445       .  S
C1702      C1703   1.407       .  A
C1703      C1704   1.402       .  A
C1703      H1716   1.085       .  S
C1704      C1706   1.444       .  S
C1705      N1709   1.157       .  T
C1706      N1710   1.157       .  T
C1707      N1712   1.157       .  T
C1708      N1711   1.157       .  T
C1717      C1718   1.413       .  A
C1717      C1722   1.399       .  A
C1717      C1731   1.446       .  S
C1718      C1723   1.489       .  S
C1718      C1719   1.401       .  A
C1719      C1720   1.400       .  A
C1719      H1738   1.085       .  S
C1720      C1721   1.417       .  A
C1720      C1732   1.442       .  S
C1721      C1722   1.408       .  A
C1722      H1737   1.085       .  S
C1723      C1724   1.403       .  A
C1723      C1728   1.413       .  A
C1724      C1725   1.397       .  A
C1724      H1739   1.085       .  S
C1725      C1726   1.415       .  A
C1725      C1729   1.445   1_565  S
C1726      C1727   1.404       .  A
C1727      C1728   1.401       .  A
C1727      H1740   1.085       .  S
C1728      C1730   1.444       .  S
C1729      N1733   1.157       .  T
C1730      N1734   1.157       .  T
C1731      N1736   1.158       .  T
C1732      N1735   1.157       .  T
C1741      C1742   1.409       .  A
C1741      C1746   1.396       .  A
C1741      C1755   1.444       .  S
C1742      C1747   1.481       .  S
C1742      C1743   1.403       .  A
C1743      C1744   1.402       .  A
C1743      H1762   1.085       .  S
C1744      C1745   1.413       .  A
C1744      C1756   1.443       .  S
C1745      C1746   1.403       .  A
C1746      H1761   1.085       .  S
C1747      C1748   1.399       .  A
C1747      C1752   1.406   1_545  A
C1748      C1749   1.397       .  A
C1748      H1763   1.085       .  S
C1749      C1750   1.420   1_545  A
C1749      C1753   1.444       .  S
C1750      C1751   1.413       .  A
C1751      C1752   1.402       .  A
C1751      H1764   1.084   1_455  S
C1752      C1754   1.444       .  S
C1753      N1757   1.157       .  T
C1754      N1758   1.157       .  T
C1755      N1760   1.157   1_455  T
C1756      N1759   1.157       .  T
C1765      C1766   1.411       .  A
C1765      C1770   1.404       .  A
C1765      C1779   1.443       .  S
C1766      C1771   1.485       .  S
C1766      C1767   1.401       .  A
C1767      C1768   1.395       .  A
C1767      H1786   1.085       .  S
C1768      C1769   1.413       .  A
C1768      C1780   1.444       .  S
C1769      C1770   1.406       .  A
C1770      H1785   1.085       .  S
C1771      C1772   1.403       .  A
C1771      C1776   1.409       .  A
C1772      C1773   1.406       .  A
C1772      H1787   1.085       .  S
C1773      C1774   1.420       .  A
C1773      C1777   1.445       .  S
C1774      C1775   1.405       .  A
C1775      C1776   1.394       .  A
C1775      H1788   1.085       .  S
C1776      C1778   1.445       .  S
C1777      N1781   1.158       .  T
C1778      N1782   1.157       .  T
C1779      N1784   1.157       .  T
C1780      N1783   1.157       .  T
C1789      C1790   1.407       .  A
C1789      C1794   1.396       .  A
C1789      C1803   1.444       .  S
C1790      C1795   1.481       .  S
C1790      C1791   1.403       .  A
C1791      C1792   1.403       .  A
C1791      H1810   1.085       .  S
C1792      C1793   1.414       .  A
C1792      C1804   1.444       .  S
C1793      C1794   1.406       .  A
C1794      H1809   1.085       .  S
C1795      C1796   1.399   1_565  A
C1795      C1800   1.407   1_565  A
C1796      C1797   1.399       .  A
C1796      H1811   1.085       .  S
C1797      C1798   1.416       .  A
C1797      C1801   1.443       .  S
C1798      C1799   1.408       .  A
C1799      C1800   1.405       .  A
C1799      H1812   1.084       .  S
C1800      C1802   1.443   1_545  S
C1801      N1805   1.157       .  T
C1802      N1806   1.157       .  T
C1803      N1808   1.157       .  T
C1804      N1807   1.157       .  T
C1813      C1814   1.414       .  A
C1813      C1818   1.407       .  A
C1813      C1827   1.444       .  S
C1814      C1819   1.490       .  S
C1814      C1815   1.401       .  A
C1815      C1816   1.397       .  A
C1815      H1834   1.085       .  S
C1816      C1817   1.413       .  A
C1816      C1828   1.444       .  S
C1817      C1818   1.405       .  A
C1818      H1833   1.085       .  S
C1819      C1820   1.402       .  A
C1819      C1824   1.412       .  A
C1820      C1821   1.404       .  A
C1820      H1835   1.085       .  S
C1821      C1822   1.420       .  A
C1821      C1825   1.444       .  S
C1822      C1823   1.406       .  A
C1823      C1824   1.400       .  A
C1823      H1836   1.082       .  S
C1824      C1826   1.445       .  S
C1825      N1829   1.157       .  T
C1826      N1830   1.157       .  T
C1827      N1832   1.157       .  T
C1828      N1831   1.157       .  T
C1837      C1838   1.410       .  A
C1837      C1842   1.400       .  A
C1837      C1851   1.445       .  S
C1838      C1843   1.493       .  S
C1838      C1839   1.404   1_655  A
C1839      C1840   1.406       .  A
C1839      H1858   1.085       .  S
C1840      C1841   1.418   1_455  A
C1840      C1852   1.443       .  S
C1841      C1842   1.407       .  A
C1842      H1857   1.085       .  S
C1843      C1844   1.403       .  A
C1843      C1848   1.410       .  A
C1844      C1845   1.402       .  A
C1844      H1859   1.085       .  S
C1845      C1846   1.420       .  A
C1845      C1849   1.445       .  S
C1846      C1847   1.408       .  A
C1847      C1848   1.404       .  A
C1847      H1860   1.084       .  S
C1848      C1850   1.443   1_655  S
C1849      N1853   1.158       .  T
C1850      N1854   1.157       .  T
C1851      N1856   1.157       .  T
C1852      N1855   1.157       .  T
C1861      C1862   1.409       .  A
C1861      C1866   1.404       .  A
C1861      C1875   1.444       .  S
C1862      C1867   1.479       .  S
C1862      C1863   1.400       .  A
C1863      C1864   1.397       .  A
C1863      H1882   1.085       .  S
C1864      C1865   1.413       .  A
C1864      C1876   1.445       .  S
C1865      C1866   1.406       .  A
C1866      H1881   1.084       .  S
C1867      C1868   1.401       .  A
C1867      C1872   1.407       .  A
C1868      C1869   1.403       .  A
C1868      H1883   1.085       .  S
C1869      C1870   1.418       .  A
C1869      C1873   1.445       .  S
C1870      C1871   1.405       .  A
C1871      C1872   1.397       .  A
C1871      H1884   1.085       .  S
C1872      C1874   1.444       .  S
C1873      N1877   1.158       .  T
C1874      N1878   1.157       .  T
C1875      N1880   1.157       .  T
C1876      N1879   1.157       .  T
C1885      C1886   1.409       .  A
C1885      C1890   1.396       .  A
C1885      C1899   1.444       .  S
C1886      C1891   1.484       .  S
C1886      C1887   1.403       .  A
C1887      C1888   1.405       .  A
C1887      H1906   1.085       .  S
C1888      C1889   1.417       .  A
C1888      C1900   1.444   1_554  S
C1889      C1890   1.403       .  A
C1890      H1905   1.083       .  S
C1891      C1892   1.403       .  A
C1891      C1896   1.410       .  A
C1892      C1893   1.403       .  A
C1892      H1907   1.085       .  S
C1893      C1894   1.414       .  A
C1893      C1897   1.444       .  S
C1894      C1895   1.404       .  A
C1895      C1896   1.399       .  A
C1895      H1908   1.085       .  S
C1896      C1898   1.444       .  S
C1897      N1901   1.157       .  T
C1898      N1902   1.157       .  T
C1899      N1904   1.157       .  T
C1900      N1903   1.157       .  T
C1909      C1910   1.410       .  A
C1909      C1914   1.401       .  A
C1909      C1923   1.444       .  S
C1910      C1915   1.479       .  S
C1910      C1911   1.401       .  A
C1911      C1912   1.398       .  A
C1911      H1930   1.085       .  S
C1912      C1913   1.412       .  A
C1912      C1924   1.444       .  S
C1913      C1914   1.404       .  A
C1914      H1929   1.085       .  S
C1915      C1916   1.399       .  A
C1915      C1920   1.407       .  A
C1916      C1917   1.397       .  A
C1916      H1931   1.085       .  S
C1917      C1918   1.417       .  A
C1917      C1921   1.444       .  S
C1918      C1919   1.411       .  A
C1919      C1920   1.403       .  A
C1919      H1932   1.084       .  S
C1920      C1922   1.444       .  S
C1921      N1925   1.157       .  T
C1922      N1926   1.157       .  T
C1923      N1928   1.157       .  T
C1924      N1927   1.157       .  T
C1933      C1934   1.408       .  A
C1933      C1938   1.396       .  A
C1933      C1947   1.445       .  S
C1934      C1939   1.480       .  S
C1934      C1935   1.402       .  A
C1935      C1936   1.402       .  A
C1935      H1954   1.085       .  S
C1936      C1937   1.414       .  A
C1936      C1948   1.444       .  S
C1937      C1938   1.404       .  A
C1938      H1953   1.085       .  S
C1939      C1940   1.398       .  A
C1939      C1944   1.410       .  A
C1940      C1941   1.399       .  A
C1940      H1955   1.085       .  S
C1941      C1942   1.419       .  A
C1941      C1945   1.445       .  S
C1942      C1943   1.407       .  A
C1943      C1944   1.399       .  A
C1943      H1956   1.085       .  S
C1944      C1946   1.445       .  S
C1945      N1949   1.157       .  T
C1946      N1950   1.157       .  T
C1947      N1952   1.157       .  T
C1948      N1951   1.157       .  T
C1957      C1958   1.410       .  A
C1957      C1962   1.400       .  A
C1957      C1971   1.443       .  S
C1958      C1963   1.483       .  S
C1958      C1959   1.404       .  A
C1959      C1960   1.401       .  A
C1959      H1978   1.085       .  S
C1960      C1961   1.411       .  A
C1960      C1972   1.445       .  S
C1961      C1962   1.403       .  A
C1962      H1977   1.085       .  S
C1963      C1964   1.401       .  A
C1963      C1968   1.411       .  A
C1964      C1965   1.399       .  A
C1964      H1979   1.085   1_554  S
C1965      C1966   1.416       .  A
C1965      C1969   1.445   1_554  S
C1966      C1967   1.405       .  A
C1967      C1968   1.403       .  A
C1967      H1980   1.084       .  S
C1968      C1970   1.443       .  S
C1969      N1973   1.158       .  T
C1970      N1974   1.157       .  T
C1971      N1976   1.157       .  T
C1972      N1975   1.157       .  T
C1981      C1982   1.413       .  A
C1981      C1986   1.404   1_455  A
C1981      C1995   1.443       .  S
C1982      C1987   1.487       .  S
C1982      C1983   1.401   1_455  A
C1983      C1984   1.398       .  A
C1983      H2002   1.085       .  S
C1984      C1985   1.416       .  A
C1984      C1996   1.445       .  S
C1985      C1986   1.404       .  A
C1986      H2001   1.084       .  S
C1987      C1988   1.402       .  A
C1987      C1992   1.411       .  A
C1988      C1989   1.402       .  A
C1988      H2003   1.085       .  S
C1989      C1990   1.419       .  A
C1989      C1993   1.444       .  S
C1990      C1991   1.407       .  A
C1991      C1992   1.398       .  A
C1991      H2004   1.085       .  S
C1992      C1994   1.445       .  S
C1993      N1997   1.157       .  T
C1994      N1998   1.157       .  T
C1995      N2000   1.157       .  T
C1996      N1999   1.157       .  T
C2005      C2006   1.410       .  A
C2005      C2010   1.400       .  A
C2005      C2019   1.445       .  S
C2006      C2011   1.487       .  S
C2006      C2007   1.403       .  A
C2007      C2008   1.405       .  A
C2007      H2026   1.085       .  S
C2008      C2009   1.416       .  A
C2008      C2020   1.443       .  S
C2009      C2010   1.408       .  A
C2010      H2025   1.085       .  S
C2011      C2012   1.402       .  A
C2011      C2016   1.411       .  A
C2012      C2013   1.398       .  A
C2012      H2027   1.085       .  S
C2013      C2014   1.413       .  A
C2013      C2017   1.445       .  S
C2014      C2015   1.406       .  A
C2015      C2016   1.403       .  A
C2015      H2028   1.085       .  S
C2016      C2018   1.443       .  S
C2017      N2021   1.157       .  T
C2018      N2022   1.157       .  T
C2019      N2024   1.157   1_655  T
C2020      N2023   1.157       .  T
C2029      C2030   1.407       .  A
C2029      C2034   1.403       .  A
C2029      C2043   1.445       .  S
C2030      C2035   1.482       .  S
C2030      C2031   1.399       .  A
C2031      C2032   1.402       .  A
C2031      H2050   1.085       .  S
C2032      C2033   1.419       .  A
C2032      C2044   1.443       .  S
C2033      C2034   1.413       .  A
C2034      H2049   1.084       .  S
C2035      C2036   1.404       .  A
C2035      C2040   1.410       .  A
C2036      C2037   1.403       .  A
C2036      H2051   1.084       .  S
C2037      C2038   1.409       .  A
C2037      C2041   1.445       .  S
C2038      C2039   1.400       .  A
C2039      C2040   1.397       .  A
C2039      H2052   1.085       .  S
C2040      C2042   1.443       .  S
C2041      N2045   1.157       .  T
C2042      N2046   1.157       .  T
C2043      N2048   1.158       .  T
C2044      N2047   1.157       .  T
C2053      C2054   1.407       .  A
C2053      C2058   1.399       .  A
C2053      C2067   1.445       .  S
C2054      C2059   1.482       .  S
C2054      C2055   1.401       .  A
C2055      C2056   1.404       .  A
C2055      H2074   1.085       .  S
C2056      C2057   1.418       .  A
C2056      C2068   1.443       .  S
C2057      C2058   1.408       .  A
C2058      H2073   1.085       .  S
C2059      C2060   1.403       .  A
C2059      C2064   1.409       .  A
C2060      C2061   1.398       .  A
C2060      H2075   1.085       .  S
C2061      C2062   1.413       .  A
C2061      C2065   1.445       .  S
C2062      C2063   1.405       .  A
C2063      C2064   1.400       .  A
C2063      H2076   1.085       .  S
C2064      C2066   1.443       .  S
C2065      N2069   1.157       .  T
C2066      N2070   1.157       .  T
C2067      N2072   1.157       .  T
C2068      N2071   1.157       .  T
C2077      C2078   1.406       .  A
C2077      C2082   1.400       .  A
C2077      C2091   1.444       .  S
C2078      C2083   1.475       .  S
C2078      C2079   1.400       .  A
C2079      C2080   1.399       .  A
C2079      H2098   1.085       .  S
C2080      C2081   1.413       .  A
C2080      C2092   1.444       .  S
C2081      C2082   1.406       .  A
C2082      H2097   1.085       .  S
C2083      C2084   1.398       .  A
C2083      C2088   1.407       .  A
C2084      C2085   1.396       .  A
C2084      H2099   1.085       .  S
C2085      C2086   1.416       .  A
C2085      C2089   1.445       .  S
C2086      C2087   1.405       .  A
C2087      C2088   1.400       .  A
C2087      H2100   1.085       .  S
C2088      C2090   1.443       .  S
C2089      N2093   1.157       .  T
C2090      N2094   1.157       .  T
C2091      N2096   1.157       .  T
C2092      N2095   1.157       .  T
C2101      C2102   1.411       .  A
C2101      C2106   1.398       .  A
C2101      C2115   1.444       .  S
C2102      C2107   1.482       .  S
C2102      C2103   1.402       .  A
C2103      C2104   1.402       .  A
C2103      H2122   1.085       .  S
C2104      C2105   1.413       .  A
C2104      C2116   1.445       .  S
C2105      C2106   1.402       .  A
C2106      H2121   1.085       .  S
C2107      C2108   1.404       .  A
C2107      C2112   1.406       .  A
C2108      C2109   1.407       .  A
C2108      H2123   1.085       .  S
C2109      C2110   1.416       .  A
C2109      C2113   1.443       .  S
C2110      C2111   1.408       .  A
C2111      C2112   1.395       .  A
C2111      H2124   1.085       .  S
C2112      C2114   1.445       .  S
C2113      N2117   1.157       .  T
C2114      N2118   1.157       .  T
C2115      N2120   1.157       .  T
C2116      N2119   1.158       .  T
C2125      C2126   1.410       .  A
C2125      C2130   1.403       .  A
C2125      C2139   1.442       .  S
C2126      C2131   1.492       .  S
C2126      C2127   1.405       .  A
C2127      C2128   1.406       .  A
C2127      H2146   1.084       .  S
C2128      C2129   1.414       .  A
C2128      C2140   1.446       .  S
C2129      C2130   1.403       .  A
C2130      H2145   1.083       .  S
C2131      C2132   1.402       .  A
C2131      C2136   1.409       .  A
C2132      C2133   1.407       .  A
C2132      H2147   1.085       .  S
C2133      C2134   1.417       .  A
C2133      C2137   1.443       .  S
C2134      C2135   1.409       .  A
C2135      C2136   1.405       .  A
C2135      H2148   1.085       .  S
C2136      C2138   1.443       .  S
C2137      N2141   1.157       .  T
C2138      N2142   1.157       .  T
C2139      N2144   1.157       .  T
C2140      N2143   1.157       .  T
C2149      C2150   1.410   1_545  A
C2149      C2154   1.399       .  A
C2149      C2163   1.445   1_545  S
C2150      C2155   1.484       .  S
C2150      C2151   1.399   1_565  A
C2151      C2152   1.403       .  A
C2151      H2170   1.085       .  S
C2152      C2153   1.420       .  A
C2152      C2164   1.444       .  S
C2153      C2154   1.406       .  A
C2154      H2169   1.085       .  S
C2155      C2156   1.402       .  A
C2155      C2160   1.407       .  A
C2156      C2157   1.405       .  A
C2156      H2171   1.085       .  S
C2157      C2158   1.419       .  A
C2157      C2161   1.445       .  S
C2158      C2159   1.403       .  A
C2159      C2160   1.396       .  A
C2159      H2172   1.085       .  S
C2160      C2162   1.442       .  S
C2161      N2165   1.158       .  T
C2162      N2166   1.156       .  T
C2163      N2168   1.157       .  T
C2164      N2167   1.157       .  T
C2173      C2174   1.408       .  A
C2173      C2178   1.396       .  A
C2173      C2187   1.446       .  S
C2174      C2179   1.476       .  S
C2174      C2175   1.400       .  A
C2175      C2176   1.400       .  A
C2175      H2194   1.085       .  S
C2176      C2177   1.415       .  A
C2176      C2188   1.443       .  S
C2177      C2178   1.406       .  A
C2178      H2193   1.085       .  S
C2179      C2180   1.401       .  A
C2179      C2184   1.406       .  A
C2180      C2181   1.395   1_655  A
C2180      H2195   1.085       .  S
C2181      C2182   1.413       .  A
C2181      C2185   1.445       .  S
C2182      C2183   1.408       .  A
C2183      C2184   1.399   1_455  A
C2183      H2196   1.085       .  S
C2184      C2186   1.444       .  S
C2185      N2189   1.157       .  T
C2186      N2190   1.157       .  T
C2187      N2192   1.157   1_655  T
C2188      N2191   1.157       .  T
C2197      C2198   1.410       .  A
C2197      C2202   1.404       .  A
C2197      C2211   1.443   1_545  S
C2198      C2203   1.482       .  S
C2198      C2199   1.399       .  A
C2199      C2200   1.398       .  A
C2199      H2218   1.085       .  S
C2200      C2201   1.417       .  A
C2200      C2212   1.445       .  S
C2201      C2202   1.405       .  A
C2202      H2217   1.085       .  S
C2203      C2204   1.401       .  A
C2203      C2208   1.408       .  A
C2204      C2205   1.404   1_545  A
C2204      H2219   1.085       .  S
C2205      C2206   1.416       .  A
C2205      C2209   1.444       .  S
C2206      C2207   1.405   1_565  A
C2207      C2208   1.401       .  A
C2207      H2220   1.085       .  S
C2208      C2210   1.443       .  S
C2209      N2213   1.157       .  T
C2210      N2214   1.157       .  T
C2211      N2216   1.157       .  T
C2212      N2215   1.157       .  T
C2221      C2222   1.409       .  A
C2221      C2226   1.403       .  A
C2221      C2235   1.443       .  S
C2222      C2227   1.482       .  S
C2222      C2223   1.400       .  A
C2223      C2224   1.396       .  A
C2223      H2242   1.085       .  S
C2224      C2225   1.416       .  A
C2224      C2236   1.445       .  S
C2225      C2226   1.407       .  A
C2226      H2241   1.084       .  S
C2227      C2228   1.400       .  A
C2227      C2232   1.410       .  A
C2228      C2229   1.401       .  A
C2228      H2243   1.085       .  S
C2229      C2230   1.418       .  A
C2229      C2233   1.444       .  S
C2230      C2231   1.404       .  A
C2231      C2232   1.398       .  A
C2231      H2244   1.085       .  S
C2232      C2234   1.444       .  S
C2233      N2237   1.157       .  T
C2234      N2238   1.157       .  T
C2235      N2240   1.157       .  T
C2236      N2239   1.157       .  T
C2245      C2246   1.411       .  A
C2245      C2250   1.402       .  A
C2245      C2259   1.444       .  S
C2246      C2251   1.482       .  S
C2246      C2247   1.401       .  A
C2247      C2248   1.401       .  A
C2247      H2266   1.085       .  S
C2248      C2249   1.411       .  A
C2248      C2260   1.442       .  S
C2249      C2250   1.403       .  A
C2250      H2265   1.085       .  S
C2251      C2252   1.399       .  A
C2251      C2256   1.408       .  A
C2252      C2253   1.399       .  A
C2252      H2267   1.085       .  S
C2253      C2254   1.418       .  A
C2253      C2257   1.445       .  S
C2254      C2255   1.407       .  A
C2255      C2256   1.404       .  A
C2255      H2268   1.084       .  S
C2256      C2258   1.443       .  S
C2257      N2261   1.157       .  T
C2258      N2262   1.157       .  T
C2259      N2264   1.157       .  T
C2260      N2263   1.156       .  T
