geometry optimzed in LAMMPS
_audit_creation_date              2020-11-30 
_audit_creation_method            'lammps2cif' 
_symmetry_space_group_name_H-M    'P1' 
_symmetry_Int_Tables_number       1 
_symmetry_cell_setting            triclinic 
loop_ 
_symmetry_equiv_pos_as_xyz 
  x,y,z 
_cell_length_a                    55.43579024 
_cell_length_b                    55.36207425880081 
_cell_length_c                    59.58260712676781 
_cell_angle_alpha                 89.72196502561886 
_cell_angle_beta                  90.17692142566989 
_cell_angle_gamma                 120.6116538921281 
loop_ 
_atom_site_label 
_atom_site_type_symbol 
_atom_site_fract_x 
_atom_site_fract_y 
_atom_site_fract_z 
_atom_site_charge 
O1          O  0.50008353  0.93942975  0.00928638    -0.76300
C2          C  0.43549633  0.94417570  0.97110836     0.84700
O3          O  0.54910825  0.01780921  0.95824462    -0.77400
O4          O  0.47443507  0.03661132  0.97733626    -0.78900
O5          O  0.47973334  0.00121340  0.05147992    -0.78700
O6          O  0.51012761  0.96336671  0.04131239    -0.77400
Zn7        Zn  0.49539753  0.96359761  0.98600182     1.55700
O8          O  0.44995493  0.00257369  0.02692278    -0.78800
Cd9        Cd  0.50945126  0.99913013  0.03186008     1.59700
Cd10       Cd  0.53284693  0.03111077  0.98358468     1.59600
O11         O  0.54778369  0.03412779  0.03933521    -0.78700
O12         O  0.50073330  0.99827733  0.99909216    -1.89300
Cd13       Cd  0.46594916  0.00083374  0.99563766     1.59900
O14         O  0.56421621  0.05578434  0.00638080    -0.78700
O15         O  0.43539774  0.96565276  0.97862622    -0.77400
C16         C  0.54231895  0.99339940  0.95124288     0.85200
C17         C  0.50569444  0.94189763  0.03018814     0.84800
O18         O  0.45658207  0.94101440  0.97309777    -0.76300
C19         C  0.45792901  0.00251290  0.04703239     0.85600
O20         O  0.52254132  0.97140070  0.96046978    -0.76400
C21         C  0.56641859  0.05418667  0.02756305     0.85800
C22         C  0.49667073  0.05608303  0.96812117     0.86100
O23         O  0.51993000  0.05669031  0.96894289    -0.78800
O24         O  0.46163554  0.51667969  0.02643019    -0.76300
C25         C  0.54904823  0.54872433  0.04312731     0.84700
O26         O  0.50949107  0.54232142  0.95500779    -0.77400
O27         O  0.56242406  0.50245448  0.98778322    -0.78900
O28         O  0.47389963  0.43565664  0.02198449    -0.78700
O29         O  0.43791867  0.47009458  0.02273483    -0.77400
Zn30       Zn  0.49911067  0.53099860  0.01128757     1.55700
O31         O  0.52016885  0.46030025  0.02774913    -0.78800
Cd32       Cd  0.46573141  0.46326178  0.00420684     1.59700
Cd33       Cd  0.50749608  0.50536684  0.96497967     1.59600
O34         O  0.44612764  0.44406556  0.97418657    -0.78700
O35         O  0.50139099  0.49985354  0.99827171    -1.89300
Cd36       Cd  0.53375130  0.49853656  0.01204039     1.59900
O37         O  0.47454547  0.47290301  0.94752109    -0.78700
O38         O  0.55366338  0.52975548  0.03599491    -0.77400
C39         C  0.50674739  0.56048691  0.96596136     0.85200
C40         C  0.43990894  0.49274139  0.02981001     0.84800
O41         O  0.52924665  0.55147309  0.03500549    -0.76300
C42         C  0.49638586  0.43799686  0.02991348     0.85600
O43         O  0.50286616  0.55873502  0.98712283    -0.76400
C44         C  0.45229497  0.45060128  0.95358253     0.85800
C45         C  0.56293804  0.50465931  0.96646678     0.86100
O46         O  0.54399240  0.50618034  0.95546754    -0.78800
O47         O  0.50371962  0.06089401  0.51123476    -0.76300
C48         C  0.56618208  0.05504243  0.47107420     0.84700
O49         O  0.45135037  0.98345886  0.46150329    -0.77400
O50         O  0.52615171  0.96278343  0.47773755    -0.78900
O51         O  0.52397248  0.99859512  0.55224068    -0.78700
O52         O  0.49294017  0.03605969  0.54300445    -0.77400
Zn53       Zn  0.50712729  0.03677188  0.48746631     1.55700
O54         O  0.55271201  0.99698562  0.52691147    -0.78800
Cd55       Cd  0.49351571  0.00047815  0.53330286     1.59700
Cd56       Cd  0.46867537  0.96926745  0.48529664     1.59600
O57         O  0.45521368  0.96559793  0.54129329    -0.78700
O58         O  0.50140957  0.00170290  0.50036864    -1.89300
Cd59       Cd  0.53567322  0.99857793  0.49608028     1.59900
O60         O  0.43787897  0.94437704  0.50845360    -0.78700
O61         O  0.56600505  0.03334991  0.47855458    -0.77400
C62         C  0.45780339  0.00795259  0.45481594     0.85200
C63         C  0.49783838  0.05791624  0.53207818     0.84800
O64         O  0.54550365  0.05876965  0.47351810    -0.76300
C65         C  0.54561735  0.99732350  0.54720613     0.85600
O66         O  0.47858615  0.02981754  0.46319743    -0.76400
C67         C  0.43611469  0.94583294  0.52966778     0.85800
C68         C  0.50371435  0.94392493  0.46837586     0.86100
O69         O  0.48072326  0.94383289  0.46941997    -0.78800
O70         O  0.05966431  0.50299234  0.99038644    -0.76300
C71         C  0.05371297  0.56547428  0.02989286     0.84700
O72         O  0.97917526  0.45058878  0.03914018    -0.77400
O73         O  0.96274250  0.52752686  0.02259552    -0.78900
O74         O  0.99620322  0.52323930  0.94805061    -0.78700
O75         O  0.03708373  0.49542118  0.95776648    -0.77400
Zn76       Zn  0.03454649  0.50584262  0.01379955     1.55700
O77         O  0.99533560  0.55254641  0.97319064    -0.78800
Cd78       Cd  0.00029594  0.49400830  0.96706970     1.59700
Cd79       Cd  0.96687693  0.46877033  0.01448605     1.59600
O80         O  0.96667747  0.45502985  0.95876910    -0.78700
O81         O  0.00038030  0.50131370  0.00003554    -1.89300
Cd82       Cd  0.99801223  0.53611849  0.00403516     1.59900
O83         O  0.94303701  0.43829897  0.99087181    -0.78700
O84         O  0.03302129  0.56625858  0.02133247    -0.77400
C85         C  0.00315294  0.45613602  0.04633970     0.85200
C86         C  0.05811210  0.49906822  0.96923653     0.84800
O87         O  0.05646074  0.54406090  0.02829581    -0.76300
C88         C  0.99454432  0.54472073  0.95296658     0.85600
O89         O  0.02565677  0.47636597  0.03807076    -0.76400
C90         C  0.94603809  0.43617648  0.96991161     0.85800
C91         C  0.94284085  0.50510797  0.03121976     0.86100
O92         O  0.94142938  0.48148464  0.02955043    -0.78800
O93         O  0.06154879  0.54361905  0.47133199    -0.76300
C94         C  0.06149579  0.49885390  0.53121231     0.84700
O95         O  0.98390073  0.44993281  0.46076674    -0.77400
O96         O  0.96927353  0.45667085  0.54079326    -0.78900
O97         O  0.00053321  0.55381200  0.52400072    -0.78700
O98         O  0.03786123  0.56584591  0.47652894    -0.77400
Zn99       Zn  0.03896567  0.50561260  0.48602394     1.55700
O100        O  0.00167787  0.52548495  0.55020793    -0.78800
Cd101      Cd  0.00260648  0.53624252  0.49380164     1.59700
Cd102      Cd  0.97139307  0.46885208  0.48442090     1.59600
O103        O  0.96742417  0.52755177  0.47501893    -0.78700
O104        O  0.00468457  0.50145345  0.49894637    -1.89300
Cd105      Cd  0.00409069  0.49477834  0.53213925     1.59900
O106        O  0.94635950  0.48153364  0.46834188    -0.78700
O107        O  0.04019400  0.49513370  0.54222763    -0.77400
C108        C  0.00805508  0.45552982  0.45407303     0.85200
C109        C  0.05888561  0.56500847  0.46895831     0.84800
O110        O  0.06353824  0.50284367  0.51005451    -0.76300
C111        C  0.00034590  0.54698476  0.54449355     0.85600
O112        O  0.03034326  0.47596834  0.46234330    -0.76400
C113        C  0.94765911  0.50509734  0.46642301     0.85800
C114        C  0.94879948  0.43776728  0.52957590     0.86100
O115        O  0.94670099  0.43923371  0.50837533    -0.78800
N116        N  0.01020230  0.43822625  0.43702735    -0.01300
C117        C  0.03393932  0.44132311  0.42761763     0.01300
C118        C  0.02769911  0.42034101  0.41229196    -0.21600
C119        C  0.99907589  0.40359186  0.41201055    -0.21800
C120        C  0.98891823  0.41498856  0.42716587     0.01200
H121        H  0.04238587  0.41785516  0.40205188     0.15000
H122        H  0.98692239  0.38537400  0.40153839     0.15000
C123        C  0.49595935  0.76750798  0.37792464     0.82400
N124        N  0.49646123  0.76762731  0.35513024    -0.75900
C125        C  0.49799595  0.74715688  0.34391026     0.84800
N126        N  0.49913338  0.72659350  0.35553128    -0.75900
C127        C  0.49858995  0.72637221  0.37832784     0.84900
N128        N  0.49711752  0.74691499  0.38951392    -0.77600
C129        C  0.73821902  0.22639474  0.37687844     0.82400
N130        N  0.76084475  0.24721760  0.38766462    -0.75900
C131        C  0.78126399  0.26904960  0.37580659     0.84800
N132        N  0.77908937  0.26995254  0.35314647    -0.75900
C133        C  0.75646471  0.24914936  0.34236129     0.84900
N134        N  0.73605981  0.22737966  0.35423937    -0.77600
N135        N  0.56930947  0.56801447  0.43764105    -0.01300
C136        C  0.56832161  0.58967280  0.42791708     0.01300
C137        C  0.58938287  0.60287369  0.41220976    -0.21600
C138        C  0.60385926  0.58877200  0.41216285    -0.21800
C139        C  0.59106922  0.56751681  0.42784581     0.01200
H140        H  0.59357219  0.62063414  0.40174646     0.15000
H141        H  0.62160932  0.59334972  0.40166832     0.15000
C142        C  0.77323662  0.50333420  0.37666433     0.82400
N143        N  0.77148933  0.50134473  0.35393256    -0.75900
C144        C  0.74929480  0.50006725  0.34305993     0.84800
N145        N  0.72882825  0.50081000  0.35498319    -0.75900
C146        C  0.73048663  0.50274743  0.37773021     0.84900
N147        N  0.75274910  0.50409097  0.38854089    -0.77600
C148        C  0.23127497  0.74054980  0.37853296     0.82400
N149        N  0.25302093  0.76205954  0.38952458    -0.75900
C150        C  0.27459886  0.78284679  0.37776856     0.84800
N151        N  0.27433291  0.78219312  0.35497020    -0.75900
C152        C  0.25257694  0.76064416  0.34395937     0.84900
N153        N  0.23105363  0.73985765  0.35576572    -0.77600
N154        N  0.44079996  0.01089171  0.43784746    -0.01300
C155        C  0.44467138  0.03489922  0.42815670     0.01300
C156        C  0.42317993  0.02918382  0.41340857    -0.21600
C157        C  0.40536529  0.00063695  0.41379750    -0.21800
C158        C  0.41665670  0.99001242  0.42877229     0.01200
H159        H  0.42107000  0.04412474  0.40304950     0.15000
H160        H  0.38659625  0.98883050  0.40380315     0.15000
C161        C  0.27939648  0.51268463  0.37341621     0.82400
N162        N  0.27990604  0.51385343  0.35063807    -0.75900
C163        C  0.25940259  0.51526869  0.33924865     0.84800
N164        N  0.23832459  0.51542438  0.35067829    -0.75900
C165        C  0.23781359  0.51432841  0.37346377     0.84900
N166        N  0.25830597  0.51285448  0.38481392    -0.77600
C167        C  0.51905461  0.28085322  0.37499700     0.82400
N168        N  0.51952184  0.25939035  0.38574731    -0.75900
C169        C  0.52323886  0.24062330  0.37390522     0.84800
N170        N  0.52623297  0.24321169  0.35125231    -0.75900
C171        C  0.52577089  0.26463066  0.34044005     0.84900
N172        N  0.52212195  0.28341483  0.35233204    -0.77600
C173        C  0.50151416  0.76916970  0.12506867     0.82400
N174        N  0.50197431  0.76942451  0.14786609    -0.75900
C175        C  0.50230527  0.74836819  0.15940635     0.84800
N176        N  0.50224897  0.72708398  0.14810080    -0.75900
C177        C  0.50173535  0.72677754  0.12530122     0.84900
N178        N  0.50145154  0.74787088  0.11382079    -0.77600
C179        C  0.73205907  0.22841786  0.12360102     0.82400
N180        N  0.73058625  0.22836960  0.14634636    -0.75900
C181        C  0.75149454  0.24949077  0.15832463     0.84800
N182        N  0.77392262  0.27061225  0.14753878    -0.75900
C183        C  0.77541849  0.27072002  0.12479433     0.84900
N184        N  0.75451101  0.24956291  0.11283464    -0.77600
N185        N  0.56657332  0.56736728  0.06071145    -0.01300
C186        C  0.56525263  0.58900783  0.07011481     0.01300
C187        C  0.58555800  0.60203178  0.08640040    -0.21600
C188        C  0.60000492  0.58801400  0.08732441    -0.21800
C189        C  0.58799650  0.56695900  0.07156039     0.01200
H190        H  0.58916992  0.61958567  0.09675585     0.15000
H191        H  0.61717018  0.59242691  0.09853111     0.15000
C192        C  0.76961041  0.50053326  0.12433340     0.82400
N193        N  0.74893612  0.50160420  0.11287662    -0.75900
C194        C  0.72714336  0.50055759  0.12413500     0.84800
N195        N  0.72615775  0.49863241  0.14689201    -0.75900
C196        C  0.74679111  0.49756781  0.15839668     0.84900
N197        N  0.76852168  0.49854982  0.14709067    -0.77600
C198        C  0.22384108  0.73677518  0.12538171     0.82400
N199        N  0.24566256  0.75792348  0.11405603    -0.75900
C200        C  0.26776002  0.77851433  0.12548019     0.84800
N201        N  0.26795125  0.77799462  0.14827396    -0.75900
C202        C  0.24615628  0.75685578  0.15963665     0.84900
N203        N  0.22410298  0.73625701  0.14817111    -0.77600
N204        N  0.44176516  0.00365121  0.06529656    -0.01300
C205        C  0.44571315  0.02680981  0.07623084     0.01300
C206        C  0.42701170  0.01941284  0.09376753    -0.21600
C207        C  0.41100310  0.99060719  0.09376229    -0.21800
C208        C  0.42055059  0.98155064  0.07621611     0.01200
H209        H  0.42528710  0.03344401  0.10537102     0.15000
H210        H  0.39431186  0.97766394  0.10536889     0.15000
C211        C  0.27979531  0.51434616  0.12042244     0.82400
N212        N  0.28151314  0.51691314  0.14312026    -0.75900
C213        C  0.26118292  0.51817932  0.15479129     0.84800
N214        N  0.23900630  0.51669010  0.14373406    -0.75900
C215        C  0.23723155  0.51418717  0.12103473     0.84900
N216        N  0.25758492  0.51288290  0.10940025    -0.77600
C217        C  0.51644005  0.27667128  0.12162316     0.82400
N218        N  0.51595697  0.25480526  0.11094302    -0.75900
C219        C  0.51972005  0.23591474  0.12274440     0.84800
N220        N  0.52374603  0.23881338  0.14531358    -0.75900
C221        C  0.52427576  0.26068763  0.15604186     0.84900
N222        N  0.52054794  0.27955087  0.14417183    -0.77600
N223        N  0.00474711  0.43910779  0.06410668    -0.01300
C224        C  0.02814029  0.44136966  0.07367246     0.01300
C225        C  0.02115340  0.42114113  0.09001389    -0.21600
C226        C  0.99245802  0.40573058  0.09077934    -0.21800
C227        C  0.98296603  0.41710066  0.07487154     0.01200
H228        H  0.03544216  0.41809981  0.10042032     0.15000
H229        H  0.97983603  0.38826564  0.10191080     0.15000
O230        O  0.53087044  0.56402151  0.52199753    -0.76300
C231        C  0.56382457  0.50716924  0.53101155     0.84700
O232        O  0.52872382  0.52671219  0.44814917    -0.77400
O233        O  0.49898115  0.43957627  0.48984638    -0.78900
O234        O  0.44999032  0.47297685  0.53701650    -0.78700
O235        O  0.48454064  0.54169180  0.52700252    -0.77400
Zn236      Zn  0.53804745  0.53649874  0.50473534     1.55700
O237        O  0.47279210  0.44958058  0.53826496    -0.78800
Cd238      Cd  0.47045502  0.50316519  0.51229848     1.59700
Cd239      Cd  0.49631285  0.49435282  0.46611814     1.59600
O240        O  0.44196975  0.49888753  0.48776030    -0.78700
O241        O  0.50272020  0.50128279  0.49925845    -1.89300
Cd242      Cd  0.50364277  0.46894480  0.51370735     1.59900
O243        O  0.45965815  0.49289748  0.45605048    -0.78700
O244        O  0.54203702  0.48295002  0.52909100    -0.77400
C245        C  0.55071735  0.54907689  0.45439524     0.85200
C246        C  0.50885413  0.56314070  0.52937079     0.84800
O247        O  0.56521843  0.52915072  0.52271949    -0.76300
C248        C  0.45356722  0.45379955  0.54542588     0.85600
O249        O  0.55661779  0.55512119  0.47507960    -0.76400
C250        C  0.44108613  0.49538452  0.46660395     0.85800
C251        C  0.49613136  0.43843327  0.46857220     0.86100
O252        O  0.49459345  0.45722425  0.45728285    -0.78800
C253        C  0.49082611  0.72457050  0.62088936     0.82400
N254        N  0.49022983  0.74556143  0.60948030    -0.75900
C255        C  0.48744920  0.76525055  0.62077336     0.84800
N256        N  0.48551181  0.76407024  0.64350278    -0.75900
C257        C  0.48611061  0.74313045  0.65495713     0.84900
N258        N  0.48882947  0.72340268  0.64363986    -0.77600
C259        C  0.72845479  0.49219859  0.62223089     0.82400
N260        N  0.74935633  0.49219139  0.61036668    -0.75900
C261        C  0.76979000  0.49003594  0.62120393     0.84800
N262        N  0.76940771  0.48808899  0.64394365    -0.75900
C263        C  0.74856852  0.48807897  0.65586428     0.84900
N264        N  0.72811523  0.49017908  0.64499091    -0.77600
N265        N  0.56259217  0.99639399  0.56497803    -0.01300
C266        C  0.55924737  0.97331815  0.57576535     0.01300
C267        C  0.57917610  0.98072665  0.59238090    -0.21600
C268        C  0.59538479  0.00953010  0.59189415    -0.21800
C269        C  0.58469508  0.01850992  0.57499193     0.01200
H270        H  0.58153969  0.96673298  0.60372152     0.15000
H271        H  0.61286506  0.02252110  0.60283062     0.15000
C272        C  0.77770376  0.26437635  0.62315018     0.82400
N273        N  0.77827898  0.26411843  0.64592823    -0.75900
C274        C  0.75678261  0.24297929  0.65750830     0.84800
N275        N  0.73472033  0.22207667  0.64628369    -0.75900
C276        C  0.73410811  0.22232657  0.62350189     0.84900
N277        N  0.75563922  0.24345383  0.61194458    -0.77600
C278        C  0.23569922  0.50545702  0.62541069     0.82400
N279        N  0.23615229  0.50514686  0.64821559    -0.75900
C280        C  0.25735036  0.50454426  0.65923138     0.84800
N281        N  0.27806237  0.50417243  0.64737697    -0.75900
C282        C  0.27767047  0.50453468  0.62457145     0.84900
N283        N  0.25643700  0.50508641  0.61363011    -0.77600
N284        N  0.43558703  0.43669406  0.56352965    -0.01300
C285        C  0.43644674  0.41571219  0.57478294     0.01300
C286        C  0.41620260  0.40451828  0.59127727    -0.21600
C287        C  0.40222030  0.41901476  0.59036315    -0.21800
C288        C  0.41444676  0.43851244  0.57334469     0.01200
H289        H  0.41222617  0.38778127  0.60288126     0.15000
H290        H  0.38515495  0.41589289  0.60112299     0.15000
C291        C  0.50424731  0.23328399  0.62263184     0.82400
N292        N  0.50561302  0.23342121  0.64539554    -0.75900
C293        C  0.50633475  0.25471791  0.65716034     0.84800
N294        N  0.50559090  0.27584390  0.64613048    -0.75900
C295        C  0.50426877  0.27579187  0.62336787     0.84900
N296        N  0.50348390  0.25443384  0.61162220    -0.77600
C297        C  0.26686399  0.77316787  0.62488693     0.82400
N298        N  0.26685163  0.77201934  0.64766617    -0.75900
C299        C  0.24611067  0.74938512  0.65859416     0.84800
N300        N  0.22535364  0.72798201  0.64671654    -0.75900
C301        C  0.22538772  0.72909791  0.62394727     0.84900
N302        N  0.24608948  0.75173743  0.61305877    -0.77600
N303        N  0.99894806  0.56424912  0.56167071    -0.01300
C304        C  0.97568074  0.56137621  0.57159429     0.01300
C305        C  0.98279975  0.58202853  0.58745866    -0.21600
C306        C  0.01157162  0.59822924  0.58736377    -0.21800
C307        C  0.02083619  0.58682478  0.57142343     0.01200
H308        H  0.96862508  0.58484723  0.59808731     0.15000
H309        H  0.02434632  0.61613180  0.59797017     0.15000
N310        N  0.99187781  0.56065553  0.93512592    -0.01300
C311        C  0.96807235  0.55549686  0.92456901     0.01300
C312        C  0.97399877  0.57477865  0.90758667    -0.21600
C313        C  0.00260544  0.59245901  0.90760847    -0.21800
C314        C  0.01292338  0.58325849  0.92463705     0.01200
H315        H  0.95914585  0.57585488  0.89640138     0.15000
H316        H  0.01457326  0.60997685  0.89635178     0.15000
C317        C  0.50397900  0.23210581  0.87569497     0.82400
N318        N  0.50424948  0.23250977  0.85290070    -0.75900
C319        C  0.50383828  0.25364427  0.84157064     0.84800
N320        N  0.50307905  0.27436828  0.85307507    -0.75900
C321        C  0.50284651  0.27404619  0.87587617     0.84900
N322        N  0.50319076  0.25284407  0.88716447    -0.77600
C323        C  0.26162205  0.77646081  0.87610699     0.82400
N324        N  0.26151107  0.77496736  0.85335636    -0.75900
C325        C  0.23937556  0.75353701  0.84258731     0.84800
N326        N  0.21740274  0.73360529  0.85459918    -0.75900
C327        C  0.21753043  0.73507548  0.87734132     0.84900
N328        N  0.23962329  0.75651226  0.88808004    -0.77600
C329        C  0.49098463  0.72360886  0.87282085     0.82400
N330        N  0.48940349  0.72364694  0.85006592    -0.75900
C331        C  0.48607475  0.74346924  0.83934324     0.84800
N332        N  0.48439734  0.76330826  0.85141365    -0.75900
C333        C  0.48590356  0.76328318  0.87417327     0.84900
N334        N  0.48929528  0.74347837  0.88485431    -0.77600
C335        C  0.72253534  0.48419815  0.87351348     0.82400
N336        N  0.72300936  0.48300972  0.85074577    -0.75900
C337        C  0.74363595  0.48089367  0.84032153     0.84800
N338        N  0.76384076  0.48011544  0.85270336    -0.75900
C339        C  0.76336083  0.48123926  0.87545217     0.84900
N340        N  0.74278292  0.48341363  0.88581928    -0.77600
N341        N  0.55720328  0.99062234  0.93249405    -0.01300
C342        C  0.55247762  0.96655217  0.92248864     0.01300
C343        C  0.57101376  0.97231327  0.90508765    -0.21600
C344        C  0.58784962  0.00094659  0.90409478    -0.21800
C345        C  0.57895359  0.01159416  0.92092206     0.01200
H346        H  0.57207344  0.95727360  0.89421038     0.15000
H347        H  0.60473210  0.01276066  0.89232237     0.15000
C348        C  0.77832473  0.26048729  0.87635226     0.82400
N349        N  0.75647359  0.23888825  0.88730648    -0.75900
C350        C  0.73504203  0.21808890  0.87546852     0.84800
N351        N  0.73554808  0.21886003  0.85269122    -0.75900
C352        C  0.75737503  0.24042203  0.84173148     0.84900
N353        N  0.77875923  0.26123080  0.85357142    -0.77600
C354        C  0.23126144  0.50055389  0.87794741     0.82400
N355        N  0.25218748  0.50015987  0.88957987    -0.75900
C356        C  0.27343779  0.49995766  0.87845086     0.84800
N357        N  0.27365514  0.49998718  0.85565709    -0.75900
C358        C  0.25279021  0.50037258  0.84395942     0.84900
N359        N  0.23158097  0.50064127  0.85512788    -0.77600
N360        N  0.43352045  0.43234669  0.93666780    -0.01300
C361        C  0.41213961  0.43372435  0.92695219     0.01300
C362        C  0.39869654  0.41266850  0.91131293    -0.21600
C363        C  0.41237180  0.39777047  0.91131554    -0.21800
C364        C  0.43360669  0.41032130  0.92696564     0.01200
H365        H  0.38102942  0.40872521  0.90089791     0.15000
H366        H  0.40755207  0.37992585  0.90085785     0.15000
C367        C  0.37344891  0.47785352  0.92630995     0.19200
C368        C  0.38186938  0.50085813  0.91187007    -0.09900
C369        C  0.36221628  0.50768588  0.90399523    -0.10800
C370        C  0.33402634  0.49148864  0.91045966     0.20800
C371        C  0.32586705  0.46918507  0.92557594    -0.12800
C372        C  0.34549282  0.46238442  0.93345346    -0.11100
C373        C  0.31309689  0.49617135  0.90022783     0.01700
C374        C  0.29509312  0.49848917  0.89070486    -0.31100
C375        C  0.39196954  0.46725975  0.93085673     0.03100
C376        C  0.40387568  0.45409201  0.93129691    -0.32800
H377        H  0.40329464  0.51270660  0.90591016     0.14100
H378        H  0.36877767  0.52487953  0.89221536     0.14000
H379        H  0.30413280  0.45638175  0.93059793     0.13800
H380        H  0.33858752  0.44426423  0.94428925     0.12900
C381        C  0.67093577  0.14821678  0.90492904     0.19200
C382        C  0.67719528  0.13160482  0.91877259    -0.09900
C383        C  0.65580831  0.10525188  0.92602255    -0.10800
C384        C  0.62800190  0.09533950  0.91951977     0.20800
C385        C  0.62161329  0.11226228  0.90616174    -0.12800
C386        C  0.64303011  0.13866510  0.89891450    -0.11100
C387        C  0.60698327  0.06654177  0.92400981     0.01700
C388        C  0.59206665  0.04135378  0.92472114    -0.31100
C389        C  0.69332417  0.17404545  0.89566662     0.03100
C390        C  0.71235131  0.19464676  0.88692440    -0.32800
H391        H  0.69869491  0.13864554  0.92339281     0.14100
H392        H  0.66109024  0.09218363  0.93601134     0.14000
H393        H  0.60027687  0.10465406  0.90069861     0.13800
H394        H  0.63794987  0.15122529  0.88807932     0.12900
C395        C  0.49039491  0.83012583  0.90675919     0.19200
C396        C  0.47994909  0.84552327  0.89604451    -0.09900
C397        C  0.48700628  0.87207910  0.90402209    -0.10800
C398        C  0.50450113  0.88339799  0.92280218     0.20800
C399        C  0.51384794  0.86742408  0.93414394    -0.12800
C400        C  0.50678133  0.84085153  0.92616617    -0.11100
C401        C  0.51680971  0.91284856  0.92778924     0.01700
C402        C  0.53121229  0.93812732  0.92799018    -0.31100
C403        C  0.48674186  0.80487906  0.89654573     0.03100
C404        C  0.48561661  0.78524279  0.88679601    -0.32800
H405        H  0.46743580  0.83758136  0.88094140     0.14100
H406        H  0.48004505  0.88437673  0.89484344     0.14000
H407        H  0.52778486  0.87609387  0.94842451     0.13800
H408        H  0.51515672  0.82926106  0.93452038     0.12900
C409        C  0.49178591  0.33258485  0.90826040     0.19200
C410        C  0.50845063  0.36135101  0.90354828    -0.09900
C411        C  0.50091974  0.38023780  0.91187554    -0.10800
C412        C  0.47674060  0.37047091  0.92501835     0.20800
C413        C  0.46067141  0.34184790  0.93036763    -0.12800
C414        C  0.46818164  0.32299058  0.92204541    -0.11100
C415        C  0.46602384  0.38871887  0.93014908     0.01700
C416        C  0.45323232  0.40098810  0.93100417    -0.31100
C417        C  0.49752787  0.31264806  0.89765239     0.03100
C418        C  0.50063579  0.29528039  0.88798934    -0.32800
H419        H  0.52666024  0.36903053  0.89281029     0.14100
H420        H  0.51327652  0.40222559  0.90730409     0.14000
H421        H  0.44168163  0.33393404  0.94018313     0.13800
H422        H  0.45502192  0.30080565  0.92570731     0.12900
C423        C  0.09654091  0.63027661  0.92462759     0.19200
C424        C  0.11008232  0.65647726  0.93525171    -0.09900
C425        C  0.13633871  0.67766917  0.92764639    -0.10800
C426        C  0.14906968  0.67273334  0.90935245     0.20800
C427        C  0.13599600  0.64620701  0.89931313    -0.12800
C428        C  0.10979490  0.62505255  0.90690998    -0.11100
C429        C  0.17431827  0.69530482  0.89964124     0.01700
C430        C  0.19441353  0.71374509  0.88998846    -0.31100
C431        C  0.06755152  0.61047137  0.92934265     0.03100
C432        C  0.04235966  0.59614194  0.92944878    -0.32800
H433        H  0.09982708  0.66091156  0.94871364     0.14100
H434        H  0.14618447  0.69815735  0.93545339     0.14000
H435        H  0.14555771  0.64221174  0.88507186     0.13800
H436        H  0.09932469  0.60505436  0.89831189     0.12900
C437        C  0.83134125  0.49041236  0.90961579     0.19200
C438        C  0.84481711  0.51301844  0.92447549    -0.09900
C439        C  0.87161979  0.52121077  0.93254869    -0.10800
C440        C  0.88511443  0.50682434  0.92585428     0.20800
C441        C  0.87110601  0.48338726  0.91182535    -0.12800
C442        C  0.84425240  0.47516849  0.90375364    -0.11100
C443        C  0.91469232  0.51914742  0.93007053     0.01700
C444        C  0.93989504  0.53374400  0.92987069    -0.31100
C445        C  0.80577701  0.48483518  0.89867538     0.03100
C446        C  0.78580934  0.48231399  0.88841714    -0.32800
H447        H  0.83516286  0.52510392  0.92900184     0.14100
H448        H  0.88239863  0.53966242  0.94304562     0.14000
H449        H  0.88148142  0.47238572  0.90620338     0.13800
H450        H  0.83413454  0.45777422  0.89215445     0.12900
C451        C  0.24083787  0.74896405  0.77419737     0.19200
C452        C  0.21615793  0.73785324  0.76148063    -0.09900
C453        C  0.21734693  0.73729745  0.73802702    -0.10800
C454        C  0.24321573  0.74784299  0.72716010     0.20800
C455        C  0.26785321  0.75871690  0.73989313    -0.12800
C456        C  0.26666460  0.75927071  0.76333455    -0.11100
C457        C  0.24453152  0.74802043  0.70297948     0.01700
C458        C  0.24547017  0.74855829  0.68272663    -0.31100
C459        C  0.23979497  0.75019307  0.79832735     0.03100
C460        C  0.23943325  0.75165306  0.81852513    -0.32800
H461        H  0.19606111  0.72981494  0.76967258     0.14100
H462        H  0.19815186  0.72885073  0.72837386     0.14000
H463        H  0.28797599  0.76694603  0.73170209     0.13800
H464        H  0.28588574  0.76790603  0.77297340     0.12900
C465        C  0.10447020  0.62818698  0.57386882     0.19200
C466        C  0.11996802  0.65471342  0.56378863    -0.09900
C467        C  0.14633292  0.67440455  0.57230518    -0.10800
C468        C  0.15726502  0.66768234  0.59097905     0.20800
C469        C  0.14224175  0.64080052  0.60049706    -0.12800
C470        C  0.11591340  0.62112354  0.59197902    -0.11100
C471        C  0.18259726  0.68898426  0.60156683     0.01700
C472        C  0.20261634  0.70714016  0.61147082    -0.31100
C473        C  0.07537425  0.61009090  0.56818964     0.03100
C474        C  0.05012641  0.59742213  0.56729036    -0.32800
H475        H  0.11115264  0.66060647  0.55003923     0.14100
H476        H  0.15766970  0.69518962  0.56490063     0.14000
H477        H  0.15037557  0.63542509  0.61503323     0.13800
H478        H  0.10393941  0.60087699  0.60017112     0.12900
C479        C  0.50441635  0.25367478  0.77291643     0.19200
C480        C  0.52166677  0.24603993  0.76160612    -0.09900
C481        C  0.52224691  0.24604741  0.73811207    -0.10800
C482        C  0.50557556  0.25369200  0.72577524     0.20800
C483        C  0.48824471  0.26122562  0.73708034    -0.12800
C484        C  0.48766496  0.26121878  0.76057469    -0.11100
C485        C  0.50628973  0.25392081  0.70156701     0.01700
C486        C  0.50657523  0.25426161  0.68129902    -0.31100
C487        C  0.50400435  0.25383764  0.79713581     0.03100
C488        C  0.50387737  0.25386993  0.81741187    -0.32800
H489        H  0.53469783  0.24014400  0.77094341     0.14100
H490        H  0.53571616  0.24016068  0.72958319     0.14000
H491        H  0.47524157  0.26715641  0.72774066     0.13800
H492        H  0.47422262  0.26714162  0.76910135     0.12900
C493        C  0.49372093  0.33640436  0.59363274     0.19200
C494        C  0.47542381  0.32979833  0.57537641    -0.09900
C495        C  0.46820724  0.34922516  0.56765097    -0.10800
C496        C  0.47930720  0.37541363  0.57809019     0.20800
C497        C  0.49822712  0.38231293  0.59593692    -0.12800
C498        C  0.50544030  0.36288830  0.60366352    -0.11100
C499        C  0.46835493  0.39342978  0.57266215     0.01700
C500        C  0.45569263  0.40580502  0.57136023    -0.31100
C501        C  0.49890153  0.31540244  0.60305582     0.03100
C502        C  0.50192711  0.29743395  0.61188785    -0.32800
H503        H  0.46606167  0.30933086  0.56757767     0.14100
H504        H  0.45319177  0.34343144  0.55410482     0.14000
H505        H  0.50658358  0.40228068  0.60441263     0.13800
H506        H  0.51944678  0.36818625  0.61788869     0.12900
C507        C  0.25477516  0.50114477  0.77520805     0.19200
C508        C  0.27159791  0.49308089  0.76372121    -0.09900
C509        C  0.27251192  0.49375630  0.74019861    -0.10800
C510        C  0.25661158  0.50250506  0.72799196     0.20800
C511        C  0.23980164  0.51054919  0.73949260    -0.12800
C512        C  0.23888802  0.50987371  0.76299040    -0.11100
C513        C  0.25740754  0.50319251  0.70372732     0.01700
C514        C  0.25759362  0.50383341  0.68342684    -0.31100
C515        C  0.25387938  0.50062165  0.79946838     0.03100
C516        C  0.25319387  0.50042653  0.81976245    -0.32800
H517        H  0.28400453  0.48630261  0.77293491     0.14100
H518        H  0.28559221  0.48746885  0.73154862     0.14000
H519        H  0.22739817  0.51734429  0.73029506     0.13800
H520        H  0.22581189  0.51617797  0.77162581     0.12900
C521        C  0.37568951  0.48256393  0.57347256     0.19200
C522        C  0.34798306  0.46879726  0.56561546    -0.09900
C523        C  0.32878790  0.47569912  0.57422363    -0.10800
C524        C  0.33715877  0.49636205  0.59078696     0.20800
C525        C  0.36517339  0.51101943  0.59788700    -0.12800
C526        C  0.38436935  0.50411759  0.58927751    -0.11100
C527        C  0.31658746  0.50077461  0.60184502     0.01700
C528        C  0.29901365  0.50303258  0.61201261    -0.31100
C529        C  0.39349719  0.47133266  0.56842517     0.03100
C530        C  0.40541596  0.45817849  0.56818993    -0.32800
H531        H  0.34086201  0.45177972  0.55369617     0.14100
H532        H  0.30717119  0.46411279  0.56866354     0.14000
H533        H  0.37189060  0.52693859  0.61075297     0.13800
H534        H  0.40558250  0.51460646  0.59577919     0.12900
C535        C  0.75812687  0.24183148  0.77317731     0.19200
C536        C  0.78037313  0.24282035  0.76125379    -0.18300
C537        C  0.78026855  0.24306277  0.73775797    -0.10800
C538        C  0.75791477  0.24231366  0.72606909     0.20800
C539        C  0.73568455  0.24133522  0.73799979    -0.12800
C540        C  0.73578917  0.24109303  0.76148417    -0.11100
C541        C  0.75774070  0.24253908  0.70187674     0.01700
C542        C  0.75737599  0.24272989  0.68162354    -0.31100
C543        C  0.75814523  0.24149951  0.79736669     0.03100
C544        C  0.75790690  0.24109923  0.81761924    -0.32800
H545        H  0.79775439  0.24338743  0.77010623     0.14100
H546        H  0.79757375  0.24382207  0.72872299     0.14000
H547        H  0.71828929  0.24074953  0.72915520     0.13800
H548        H  0.71847058  0.24031539  0.77051278     0.12900
C549        C  0.67032966  0.15444714  0.59199306     0.19200
C550        C  0.67650507  0.14162635  0.57449902    -0.09900
C551        C  0.65580750  0.11549900  0.56632687    -0.10800
C552        C  0.62879550  0.10209045  0.57555818     0.20800
C553        C  0.62236198  0.11540255  0.59248879    -0.12800
C554        C  0.64306013  0.14152338  0.60066620    -0.11100
C555        C  0.60933749  0.07307184  0.57042544     0.01700
C556        C  0.59579271  0.04777782  0.57002180    -0.31100
C557        C  0.69241923  0.17960721  0.60222219     0.03100
C558        C  0.71130277  0.19956378  0.61165088    -0.32800
H559        H  0.69755866  0.15131165  0.56776669     0.14100
H560        H  0.66120497  0.10520583  0.55354281     0.14000
H561        H  0.60172299  0.10503032  0.60006515     0.13800
H562        H  0.63807720  0.15112188  0.61430043     0.12900
C563        C  0.74662505  0.48084730  0.77166348     0.19200
C564        C  0.77216667  0.49702965  0.76037873    -0.09900
C565        C  0.77284777  0.49817576  0.73686683    -0.10800
C566        C  0.74798978  0.48314439  0.72448310     0.20800
C567        C  0.72252495  0.46671520  0.73577460    -0.12800
C568        C  0.72184457  0.46557022  0.75926306    -0.11100
C569        C  0.74845313  0.48487078  0.70026323     0.01700
C570        C  0.74847445  0.48631810  0.68000625    -0.31100
C571        C  0.74568414  0.48042328  0.79590519     0.03100
C572        C  0.74466269  0.48043494  0.81617300    -0.32800
H573        H  0.79148396  0.50894726  0.76974411     0.14100
H574        H  0.79268547  0.51094321  0.72836760     0.14000
H575        H  0.70316537  0.45497880  0.72642808     0.13800
H576        H  0.70196571  0.45298559  0.76775229     0.12900
C577        C  0.83894603  0.49929869  0.58896806     0.19200
C578        C  0.85236723  0.48513587  0.59666776    -0.09900
C579        C  0.87904210  0.49266993  0.58863571    -0.10800
C580        C  0.89240544  0.51434614  0.57280426     0.20800
C581        C  0.87850200  0.52773963  0.56449161    -0.12800
C582        C  0.85186889  0.52022696  0.57252247    -0.11100
C583        C  0.92176209  0.52598068  0.56791339     0.01700
C584        C  0.94701684  0.54001640  0.56725843    -0.31100
C585        C  0.81317662  0.49414024  0.59924548     0.03100
C586        C  0.79280284  0.49157779  0.60881297    -0.32800
H587        H  0.84270730  0.46905502  0.60949209     0.14100
H588        H  0.88973651  0.48248535  0.59551215     0.14000
H589        H  0.88877770  0.54487125  0.55257529     0.13800
H590        H  0.84183943  0.53148522  0.56654585     0.12900
C591        C  0.48344224  0.74338567  0.77071866     0.19200
C592        C  0.49250122  0.76828980  0.75855196    -0.09900
C593        C  0.49250603  0.76794619  0.73504511    -0.10800
C594        C  0.48345565  0.74270069  0.72355940     0.20800
C595        C  0.47421259  0.71778020  0.73572839    -0.12800
C596        C  0.47420642  0.71812332  0.75922299    -0.11100
C597        C  0.48398942  0.74242180  0.69934608     0.01700
C598        C  0.48477709  0.74244625  0.67908584    -0.31100
C599        C  0.48404731  0.74375548  0.79494387     0.03100
C600        C  0.48483931  0.74373720  0.81521161    -0.32800
H601        H  0.49971059  0.78796287  0.76722292     0.14100
H602        H  0.49970767  0.78735938  0.72584167     0.14000
H603        H  0.46717119  0.69813283  0.72706471     0.13800
H604        H  0.46717112  0.69873428  0.76841877     0.12900
C605        C  0.51148280  0.88973782  0.57615130     0.19200
C606        C  0.52143019  0.87437340  0.56487385    -0.09900
C607        C  0.51357767  0.84723290  0.57205448    -0.10800
C608        C  0.49578964  0.83533328  0.59058962     0.20800
C609        C  0.48495171  0.85025767  0.60130827    -0.12800
C610        C  0.49280741  0.87740020  0.59412876    -0.11100
C611        C  0.49084260  0.80910989  0.59990281     0.01700
C612        C  0.48854355  0.78845937  0.60890552    -0.31100
C613        C  0.52388360  0.91933411  0.57173131     0.03100
C614        C  0.53815067  0.94459380  0.57137506    -0.32800
H615        H  0.53626473  0.88384329  0.55122134     0.14100
H616        H  0.52227769  0.83600553  0.56374351     0.14000
H617        H  0.47136915  0.84138377  0.61576848     0.13800
H618        H  0.48536305  0.88922527  0.60324754     0.12900
C619        C  0.50723675  0.62633898  0.56286025     0.19200
C620        C  0.52613476  0.65504559  0.55955041    -0.09900
C621        C  0.52281334  0.67498663  0.57135478    -0.10800
C622        C  0.50056870  0.66633555  0.58651262     0.20800
C623        C  0.48164207  0.63763257  0.58976294    -0.12800
C624        C  0.48495929  0.61771170  0.57797111    -0.11100
C625        C  0.49713150  0.68684178  0.59870858     0.01700
C626        C  0.49420367  0.70398386  0.60890181    -0.31100
C627        C  0.51035832  0.60562578  0.55068558     0.03100
C628        C  0.51110921  0.58702700  0.54079784    -0.32800
H629        H  0.54338049  0.66199220  0.54786841     0.14100
H630        H  0.53756475  0.69711610  0.56866644     0.14000
H631        H  0.46434222  0.63066296  0.60139604     0.13800
H632        H  0.47014722  0.59558508  0.58062598     0.12900
C633        C  0.66857341  0.50114984  0.58901733     0.19200
C634        C  0.64140729  0.48953948  0.59773278    -0.09900
C635        C  0.62104582  0.49245208  0.58604547    -0.10800
C636        C  0.62766487  0.50702122  0.56555300     0.20800
C637        C  0.65486997  0.51875079  0.55688696    -0.12800
C638        C  0.67523860  0.51583770  0.56857900    -0.11100
C639        C  0.60631201  0.50916601  0.55319779     0.01700
C640        C  0.58754330  0.50942044  0.54297262    -0.31100
C641        C  0.68950616  0.49783791  0.60092156     0.03100
C642        C  0.70714749  0.49513718  0.61072505    -0.32800
H643        H  0.63592918  0.47812516  0.61348861     0.14100
H644        H  0.60009046  0.48317717  0.59291479     0.14000
H645        H  0.66027882  0.52996854  0.54104201     0.13800
H646        H  0.69613277  0.52491300  0.56162621     0.12900
C647        C  0.11158864  0.48612974  0.07477153     0.19200
C648        C  0.12534751  0.50822472  0.09008494    -0.09900
C649        C  0.15209218  0.51578248  0.09805577    -0.10800
C650        C  0.16523060  0.50123501  0.09083072     0.20800
C651        C  0.15179850  0.47966643  0.07505202    -0.12800
C652        C  0.12507724  0.47212091  0.06708195    -0.11100
C653        C  0.19157929  0.50717309  0.10061765     0.01700
C654        C  0.21281726  0.51092046  0.10957358    -0.31100
C655        C  0.08233710  0.47508057  0.06961211     0.03100
C656        C  0.05703058  0.46185584  0.06888889    -0.32800
H657        H  0.11498717  0.51889134  0.09650459     0.14100
H658        H  0.16213834  0.53237057  0.11035439     0.14000
H659        H  0.16160466  0.46811489  0.06943206     0.13800
H660        H  0.11450406  0.45466050  0.05558856     0.12900
C661        C  0.50740080  0.16434128  0.09249594     0.19200
C662        C  0.52277306  0.15150883  0.09841361    -0.09900
C663        C  0.51463345  0.12462552  0.09044085    -0.10800
C664        C  0.49113343  0.11044690  0.07643802     0.20800
C665        C  0.47637452  0.12370837  0.06992581    -0.12800
C666        C  0.48449553  0.15054735  0.07789268    -0.11100
C667        C  0.47958994  0.08102887  0.07160434     0.01700
C668        C  0.46610677  0.05568567  0.07118446    -0.31100
C669        C  0.51372520  0.19062001  0.10258877     0.03100
C670        C  0.51724338  0.21168716  0.11162913    -0.32800
H671        H  0.54042537  0.16185047  0.10978422     0.14100
H672        H  0.52595335  0.11446290  0.09593061     0.14000
H673        H  0.45788873  0.11283666  0.05944673     0.13800
H674        H  0.47232179  0.16012638  0.07328229     0.12900
C675        C  0.33162856  0.84608961  0.09326071     0.19200
C676        C  0.32512824  0.86096397  0.07766428    -0.09900
C677        C  0.34624943  0.88685891  0.06933820    -0.10800
C678        C  0.37403692  0.89803702  0.07650115     0.20800
C679        C  0.38070998  0.88263905  0.09142724    -0.12800
C680        C  0.35957374  0.85671894  0.09975447    -0.11100
C681        C  0.39446722  0.92693223  0.07153548     0.01700
C682        C  0.40876881  0.95221240  0.07117912    -0.31100
C683        C  0.30942418  0.82116502  0.10384722     0.03100
C684        C  0.29052101  0.80133354  0.11349203    -0.32800
H685        H  0.30360392  0.85306884  0.07259667     0.14100
H686        H  0.34070537  0.89874350  0.05812746     0.14000
H687        H  0.40200235  0.89123650  0.09741137     0.13800
H688        H  0.36486621  0.84550698  0.11188694     0.12900
C689        C  0.66664850  0.50992949  0.09283610     0.19200
C690        C  0.67283349  0.52700858  0.07375421    -0.09900
C691        C  0.65325192  0.53370810  0.06550768    -0.10800
C692        C  0.62733115  0.52331535  0.07625103     0.20800
C693        C  0.62079407  0.50548309  0.09488196    -0.12800
C694        C  0.64036660  0.49878393  0.10312490    -0.11100
C695        C  0.60941204  0.53422214  0.07035343     0.01700
C696        C  0.59735618  0.54717007  0.06865487    -0.31100
C697        C  0.68784818  0.50544301  0.10279480     0.03100
C698        C  0.70576508  0.50278661  0.11211737    -0.32800
H699        H  0.69311898  0.53589806  0.06571163     0.14100
H700        H  0.65876819  0.54788671  0.05133334     0.14000
H701        H  0.60104072  0.49768399  0.10358275     0.13800
H702        H  0.63536786  0.48569446  0.11795607     0.12900
C703        C  0.84638693  0.33351908  0.09540301     0.19200
C704        C  0.85618185  0.32983714  0.07477443    -0.09900
C705        C  0.88259901  0.35030750  0.06680138    -0.10800
C706        C  0.89931314  0.37460804  0.07938017     0.20800
C707        C  0.88912874  0.37862773  0.09967606    -0.12800
C708        C  0.86275797  0.35817967  0.10764488    -0.11100
C709        C  0.92820593  0.39335469  0.07329042     0.01700
C710        C  0.95342565  0.40642326  0.07165138    -0.31100
C711        C  0.82043960  0.31139485  0.10472348     0.03100
C712        C  0.79954534  0.29280104  0.11349300    -0.32800
H713        H  0.84379417  0.31079853  0.06520643     0.14100
H714        H  0.89039747  0.34670852  0.05128244     0.14000
H715        H  0.90201169  0.39707150  0.10975796     0.13800
H716        H  0.85551068  0.36121549  0.12366874     0.12900
C717        C  0.50968523  0.66708943  0.09163944     0.19200
C718        C  0.53267229  0.67647514  0.07719123    -0.09900
C719        C  0.53907841  0.65732134  0.06775731    -0.10800
C720        C  0.52250929  0.62861008  0.07264349     0.20800
C721        C  0.49891371  0.61908730  0.08646149    -0.12800
C722        C  0.49248323  0.63827535  0.09590076    -0.11100
C723        C  0.53249313  0.61000597  0.06662041     0.01700
C724        C  0.54523946  0.59771097  0.06552139    -0.31100
C725        C  0.50506393  0.68722847  0.10320234     0.03100
C726        C  0.50289346  0.70490597  0.11328467    -0.32800
H727        H  0.54622508  0.69869089  0.07385485     0.14100
H728        H  0.55767653  0.66504257  0.05746902     0.14000
H729        H  0.48622930  0.59702824  0.09072261     0.13800
H730        H  0.47472953  0.63075595  0.10712860     0.12900
C731        C  0.52960397  0.26549585  0.22460367     0.19200
C732        C  0.53721689  0.29060779  0.23582895    -0.09900
C733        C  0.53729497  0.29131784  0.25934986    -0.10800
C734        C  0.52975368  0.26691690  0.27180435     0.20800
C735        C  0.52234405  0.24188136  0.26056604    -0.12800
C736        C  0.52226571  0.24117209  0.23707352    -0.11100
C737        C  0.52913161  0.26731134  0.29604838     0.01700
C738        C  0.52792682  0.26662948  0.31632236    -0.31100
C739        C  0.52869963  0.26444828  0.20035983     0.03100
C740        C  0.52712466  0.26296572  0.18011271    -0.32800
H741        H  0.54288889  0.30955828  0.22641355     0.14100
H742        H  0.54304252  0.31080872  0.26780262     0.14000
H743        H  0.51644420  0.22286207  0.26996321     0.13800
H744        H  0.51629000  0.22161327  0.22863772     0.12900
C745        C  0.50697357  0.33702644  0.41042275     0.19200
C746        C  0.50235277  0.35648016  0.39894716    -0.09900
C747        C  0.49865357  0.37608100  0.41089873    -0.10800
C748        C  0.49951889  0.37636661  0.43441845     0.20800
C749        C  0.50400978  0.35683084  0.44591002    -0.12800
C750        C  0.50771093  0.33722151  0.43395315    -0.11100
C751        C  0.49667025  0.39722252  0.44668039     0.01700
C752        C  0.49552257  0.41550148  0.45676602    -0.31100
C753        C  0.51117622  0.31708275  0.39804739     0.03100
C754        C  0.51478714  0.30054369  0.38756072    -0.32800
H755        H  0.50175718  0.35659056  0.38077438     0.14100
H756        H  0.49532021  0.39113032  0.40179936     0.14000
H757        H  0.50484627  0.35688749  0.46407790     0.13800
H758        H  0.51128856  0.32232862  0.44304220     0.12900
C759        C  0.26191514  0.51899357  0.22344465     0.19200
C760        C  0.28407661  0.54037462  0.23570467    -0.09900
C761        C  0.28351905  0.53974487  0.25921216    -0.10800
C762        C  0.26080261  0.51773334  0.27060792     0.20800
C763        C  0.23864340  0.49637326  0.25834400    -0.12800
C764        C  0.23920057  0.49700263  0.23484987    -0.11100
C765        C  0.26026759  0.51698977  0.29483089     0.01700
C766        C  0.25983695  0.51625060  0.31510162    -0.31100
C767        C  0.26240635  0.51951242  0.19921401     0.03100
C768        C  0.26220345  0.51930400  0.17893384    -0.32800
H769        H  0.30176132  0.55748924  0.22710712     0.14100
H770        H  0.30078737  0.55637957  0.26848774     0.14000
H771        H  0.22096852  0.47923623  0.26693454     0.13800
H772        H  0.22194050  0.48034398  0.22558382     0.12900
C773        C  0.33931573  0.50534532  0.40773622     0.19200
C774        C  0.36783200  0.52532638  0.40518734    -0.09900
C775        C  0.38804562  0.52234771  0.41699465    -0.10800
C776        C  0.37986915  0.49936504  0.43140538     0.20800
C777        C  0.35135471  0.47940082  0.43396409    -0.12800
C778        C  0.33114226  0.48238055  0.42215719    -0.11100
C779        C  0.40072878  0.49650539  0.44371731     0.01700
C780        C  0.41872832  0.49512398  0.45410609    -0.31100
C781        C  0.31845209  0.50834013  0.39556687     0.03100
C782        C  0.30075506  0.51051699  0.38543266    -0.32800
H783        H  0.37442179  0.54317518  0.39410375     0.14100
H784        H  0.41002186  0.53796692  0.41491543     0.14000
H785        H  0.34476098  0.46158905  0.44508859     0.13800
H786        H  0.30916358  0.46680141  0.42427766     0.12900
C787        C  0.51535009  0.17037725  0.40385948     0.19200
C788        C  0.50651220  0.16375777  0.42622820    -0.09900
C789        C  0.49816217  0.13702143  0.43483330    -0.10800
C790        C  0.49868963  0.11677197  0.42114127     0.20800
C791        C  0.50875802  0.12384873  0.39909478    -0.12800
C792        C  0.51707582  0.15054834  0.39049231    -0.11100
C793        C  0.48463601  0.08774736  0.42817018     0.01700
C794        C  0.46843171  0.06291725  0.43063285    -0.31100
C795        C  0.52017774  0.19638221  0.39403404     0.03100
C796        C  0.52228624  0.21704137  0.38512855    -0.32800
H797        H  0.50494118  0.17883080  0.43671506     0.14100
H798        H  0.49001794  0.13172672  0.45177157     0.14000
H799        H  0.50885381  0.10828506  0.38819623     0.13800
H800        H  0.52371470  0.15530814  0.37314805     0.12900
C801        C  0.24742426  0.75659886  0.22827512     0.19200
C802        C  0.23800529  0.77199453  0.24019496    -0.09900
C803        C  0.23914126  0.77272734  0.26367281    -0.10800
C804        C  0.24971474  0.75808008  0.27539046     0.20800
C805        C  0.25898203  0.74254106  0.26348461    -0.12800
C806        C  0.25784588  0.74180805  0.23999687    -0.11100
C807        C  0.25111310  0.75909018  0.29957701     0.01700
C808        C  0.25205501  0.75995781  0.31982695    -0.31100
C809        C  0.24670987  0.75628575  0.20405912     0.03100
C810        C  0.24636068  0.75640069  0.18378691    -0.32800
H811        H  0.22990436  0.78351704  0.23134348     0.14100
H812        H  0.23187600  0.78478207  0.27267472     0.14000
H813        H  0.26716345  0.73109421  0.27234148     0.13800
H814        H  0.26519188  0.72982782  0.23098807     0.12900
C815        C  0.37464610  0.90571334  0.42583131     0.19200
C816        C  0.34843015  0.88965098  0.43614011    -0.09900
C817        C  0.32925574  0.86291975  0.42795601    -0.10800
C818        C  0.33619163  0.85218706  0.40939576     0.20800
C819        C  0.36286410  0.86774128  0.39974171    -0.12800
C820        C  0.38203036  0.89443865  0.40793152    -0.11100
C821        C  0.31518058  0.82654330  0.39900088     0.01700
C822        C  0.29696431  0.80621501  0.38944231    -0.31100
C823        C  0.39210937  0.93500312  0.43118299     0.03100
C824        C  0.40473855  0.96027490  0.43213814    -0.32800
H825        H  0.34233191  0.89828059  0.44978741     0.14100
H826        H  0.30864125  0.85114213  0.43548896     0.14000
H827        H  0.36841490  0.85973852  0.38531820     0.13800
H828        H  0.40208255  0.90680279  0.39962697     0.12900
C829        C  0.74605943  0.49641537  0.22713707     0.19200
C830        C  0.76113502  0.48653597  0.23913125    -0.09900
C831        C  0.76141106  0.48693627  0.26264670    -0.10800
C832        C  0.74661380  0.49721839  0.27435765     0.20800
C833        C  0.73151339  0.50707043  0.26236273    -0.12800
C834        C  0.73123727  0.50666999  0.23884691    -0.11100
C835        C  0.74712486  0.49787504  0.29861558     0.01700
C836        C  0.74788302  0.49869212  0.31890091    -0.31100
C837        C  0.74602121  0.49629381  0.20287478     0.03100
C838        C  0.74623075  0.49659598  0.18257780    -0.32800
H839        H  0.77272379  0.47859806  0.23031332     0.14100
H840        H  0.77320714  0.47929746  0.27168538     0.14000
H841        H  0.72001894  0.51511579  0.27117862     0.13800
H842        H  0.71953577  0.51441593  0.22980593     0.12900
C843        C  0.63101348  0.52443996  0.42663127     0.19200
C844        C  0.65868706  0.53896694  0.43457102    -0.09900
C845        C  0.67835401  0.53236711  0.42654255    -0.10800
C846        C  0.67050771  0.51122817  0.41047348     0.20800
C847        C  0.64256294  0.49591095  0.40323434    -0.12800
C848        C  0.62289296  0.50252503  0.41125565    -0.11100
C849        C  0.69149796  0.50688753  0.40005460     0.01700
C850        C  0.70924392  0.50452611  0.39024316    -0.31100
C851        C  0.61251120  0.53495562  0.43144108     0.03100
C852        C  0.60018757  0.54771676  0.43204569    -0.32800
H853        H  0.66537787  0.55624431  0.44617125     0.14100
H854        H  0.69990011  0.54447781  0.43220142     0.14000
H855        H  0.63623805  0.47962019  0.39073894     0.13800
H856        H  0.60170894  0.49141575  0.40469826     0.12900
C857        C  0.75003261  0.24935643  0.22686912     0.19200
C858        C  0.73328832  0.22453679  0.23896734    -0.09900
C859        C  0.73409158  0.22471120  0.26245505    -0.10800
C860        C  0.75164248  0.24970429  0.27396102     0.20800
C861        C  0.76823185  0.27454975  0.26186316    -0.12800
C862        C  0.76742842  0.27437565  0.23838655    -0.11100
C863        C  0.75301989  0.24977186  0.29812153     0.01700
C864        C  0.75451758  0.24967823  0.31832859    -0.31100
C865        C  0.74980275  0.24910878  0.20267691     0.03100
C866        C  0.75026417  0.24916526  0.18242494    -0.32800
H867        H  0.71978426  0.20505599  0.23025504     0.14100
H868        H  0.72119587  0.20536155  0.27162364     0.14000
H869        H  0.78190767  0.29398886  0.27056542     0.13800
H870        H  0.78049651  0.29368487  0.22922189     0.12900
C871        C  0.50239604  0.74866175  0.22809617     0.19200
C872        C  0.49905563  0.72530863  0.24010457    -0.09900
C873        C  0.49834405  0.72511641  0.26360407    -0.10800
C874        C  0.50096423  0.74827362  0.27526435     0.20800
C875        C  0.50441747  0.77167426  0.26325949    -0.12800
C876        C  0.50512927  0.77186658  0.23975841    -0.11100
C877        C  0.49995597  0.74795074  0.29948766     0.01700
C878        C  0.49903131  0.74759308  0.31975674    -0.31100
C879        C  0.50271165  0.74868809  0.20385905     0.03100
C880        C  0.50265996  0.74858677  0.18357501    -0.32800
H881        H  0.49690396  0.70722983  0.23130872     0.14100
H882        H  0.49566855  0.70689806  0.27266786     0.14000
H883        H  0.50647155  0.78971279  0.27205460     0.13800
H884        H  0.50770747  0.79004490  0.23069175     0.12900
C885        C  0.50935163  0.66699832  0.41029508     0.19200
C886        C  0.49419854  0.63888475  0.40344352    -0.09900
C887        C  0.50153256  0.61963303  0.41145880    -0.10800
C888        C  0.52401447  0.62834843  0.42643166     0.20800
C889        C  0.53847116  0.65621824  0.43391014    -0.12800
C890        C  0.53115204  0.67545541  0.42589474    -0.11100
C891        C  0.53501674  0.61020923  0.43135679     0.01700
C892        C  0.54814368  0.59824996  0.43208813    -0.31100
C893        C  0.50404297  0.68756360  0.40006219     0.03100
C894        C  0.50100236  0.70517283  0.39054401    -0.32800
H895        H  0.47740392  0.63208850  0.39130064     0.14100
H896        H  0.49046044  0.59829162  0.40524696     0.14000
H897        H  0.55617880  0.66337649  0.44517838     0.13800
H898        H  0.54315036  0.69713876  0.43123744     0.12900
C899        C  0.16907607  0.50718614  0.40476191     0.19200
C900        C  0.16232923  0.49797765  0.42706031    -0.09900
C901        C  0.13591654  0.49046844  0.43569767    -0.10800
C902        C  0.11618900  0.49224154  0.42209423     0.20800
C903        C  0.12341420  0.50255540  0.40011023    -0.12800
C904        C  0.14975667  0.51001804  0.39148350    -0.11100
C905        C  0.08732265  0.47921522  0.42905136     0.01700
C906        C  0.06232061  0.46393128  0.43100190    -0.31100
C907        C  0.19466863  0.51144660  0.39484044     0.03100
C908        C  0.21485941  0.51336657  0.38546297    -0.32800
H909        H  0.17702309  0.49553750  0.43745874     0.14100
H910        H  0.13043911  0.48206721  0.45257663     0.14000
H911        H  0.10819980  0.50354623  0.38927783     0.13800
H912        H  0.15462834  0.51692474  0.37418755     0.12900
C913        C  0.85252944  0.33005622  0.40606506     0.19200
C914        C  0.86589564  0.32260675  0.42235320    -0.09900
C915        C  0.89217964  0.34274616  0.43067742    -0.10800
C916        C  0.90524181  0.37048686  0.42281577     0.20800
C917        C  0.89155122  0.37810594  0.40694914    -0.12800
C918        C  0.86524639  0.35795608  0.39862410    -0.11100
C919        C  0.93406461  0.38988544  0.42860539     0.01700
C920        C  0.95925829  0.40351176  0.43021766    -0.31100
C921        C  0.82662108  0.30879698  0.39609680     0.03100
C922        C  0.80562830  0.29072309  0.38710243    -0.32800
H923        H  0.85637350  0.30108406  0.42814288     0.14100
H924        H  0.90274704  0.33646517  0.44263082     0.14000
H925        H  0.90162820  0.39935245  0.40043486     0.13800
H926        H  0.85520935  0.36394787  0.38594099     0.12900
C927        C  0.17106170  0.50382826  0.59069295     0.19200
C928        C  0.17022283  0.50112744  0.56726934    -0.09900
C929        C  0.14798463  0.49979948  0.55498837    -0.10800
C930        C  0.12641050  0.50114938  0.56604445     0.20800
C931        C  0.12730625  0.50394534  0.58945895    -0.12800
C932        C  0.14953973  0.50527128  0.60173766    -0.11100
C933        C  0.10343535  0.49977328  0.55342894     0.01700
C934        C  0.08420988  0.49898640  0.54314276    -0.31100
C935        C  0.19382765  0.50484519  0.60335719     0.03100
C936        C  0.21288513  0.50533442  0.61366898    -0.32800
H937        H  0.18671018  0.49998153  0.55851452     0.14100
H938        H  0.14759695  0.49768663  0.53690328     0.14000
H939        H  0.11080712  0.50506263  0.59821988     0.13800
H940        H  0.14991025  0.50735234  0.61982501     0.12900
C941        C  0.88570039  0.37223448  0.56398708     0.19200
C942        C  0.87561096  0.34433129  0.55771277    -0.09900
C943        C  0.85375970  0.32239104  0.56977837    -0.10800
C944        C  0.84188859  0.32824939  0.58816842     0.20800
C945        C  0.85195098  0.35615903  0.59442077    -0.12800
C946        C  0.87379876  0.37809758  0.58235563    -0.11100
C947        C  0.81936007  0.30566800  0.60056472     0.01700
C948        C  0.80040084  0.28679871  0.61090542    -0.31100
C949        C  0.90820554  0.39484048  0.55159858     0.03100
C950        C  0.92691780  0.41412475  0.54140000    -0.32800
H951        H  0.88462587  0.33955278  0.54352718     0.14100
H952        H  0.84612847  0.30089471  0.56477563     0.14000
H953        H  0.84291696  0.36094315  0.60859064     0.13800
H954        H  0.88140532  0.39959663  0.58734249     0.12900
C955        C  0.12210793  0.63191144  0.43594548     0.19200
C956        C  0.14094362  0.62750222  0.42353227    -0.09900
C957        C  0.16317392  0.64986551  0.41214735    -0.10800
C958        C  0.16668308  0.67675129  0.41312428     0.20800
C959        C  0.14788910  0.68119305  0.42558037    -0.12800
C960        C  0.12564021  0.65881099  0.43697611    -0.11100
C961        C  0.18945233  0.69965327  0.40121453     0.01700
C962        C  0.20854663  0.71847617  0.39097080    -0.31100
C963        C  0.09926814  0.60881933  0.44763646     0.03100
C964        C  0.08052446  0.58905277  0.45737280    -0.32800
H965        H  0.13842826  0.60679451  0.42264384     0.14100
H966        H  0.17757572  0.64619474  0.40256639     0.14000
H967        H  0.15040753  0.70190101  0.42644623     0.13800
H968        H  0.11121781  0.66245779  0.44654812     0.12900
C969        C  0.83980573  0.50651933  0.40941238     0.19200
C970        C  0.85659285  0.49800433  0.39848100    -0.09900
C971        C  0.87887649  0.49828952  0.40987318    -0.10800
C972        C  0.88454164  0.50710156  0.43227350     0.20800
C973        C  0.86784747  0.51575832  0.44316987    -0.12800
C974        C  0.84556191  0.51547167  0.43177736    -0.11100
C975        C  0.90718780  0.50689145  0.44414566     0.01700
C976        C  0.92584881  0.50630883  0.45420997    -0.31100
C977        C  0.81650387  0.50572027  0.39779671     0.03100
C978        C  0.79681770  0.50473678  0.38814098    -0.32800
H979        H  0.85237159  0.49101887  0.38121002     0.14100
H980        H  0.89158685  0.49151455  0.40125705     0.14000
H981        H  0.87196818  0.52258791  0.46048218     0.13800
H982        H  0.83274817  0.52208841  0.44043465     0.12900
C983        C  0.88528712  0.36913013  0.93539424     0.19200
C984        C  0.88150574  0.34215688  0.93712244    -0.09900
C985        C  0.86001853  0.31989198  0.92509103    -0.10800
C986        C  0.84222114  0.32450564  0.91128190     0.20800
C987        C  0.84611600  0.35151209  0.90947072    -0.12800
C988        C  0.86758408  0.37375765  0.92149090    -0.11100
C989        C  0.81984270  0.30157608  0.89910250     0.01700
C990        C  0.80091287  0.28266114  0.88882230    -0.31100
C991        C  0.90712703  0.39205560  0.94795639     0.03100
C992        C  0.92506827  0.41182102  0.95822834    -0.32800
H993        H  0.89507135  0.33833134  0.94780923     0.14100
H994        H  0.85721943  0.29910660  0.92661560     0.14000
H995        H  0.83250443  0.35534174  0.89884336     0.13800
H996        H  0.87031282  0.39452180  0.92001162     0.12900
C997        C  0.16688089  0.49991923  0.91210422     0.19200
C998        C  0.15541526  0.51597091  0.90453853    -0.09900
C999        C  0.13341682  0.51563172  0.91634206    -0.10800
C1000       C  0.12269551  0.49924501  0.93581252     0.20800
C1001       C  0.13415303  0.48318286  0.94337915    -0.12800
C1002       C  0.15615719  0.48352280  0.93157284    -0.11100
C1003       C  0.09998147  0.49892931  0.94795399     0.01700
C1004       C  0.08092822  0.49887704  0.95784970    -0.31100
C1005       C  0.18958670  0.50026698  0.89992495     0.03100
C1006       C  0.20858504  0.50047291  0.88981506    -0.32800
H1007       H  0.16347168  0.52873653  0.88953034     0.14100
H1008       H  0.12477566  0.52814434  0.91028669     0.14000
H1009       H  0.12608981  0.47041485  0.95838549     0.13800
H1010       H  0.16479893  0.47100922  0.93762284     0.12900
C1011       C  0.88035585  0.50667951  0.06640961     0.19200
C1012       C  0.86830480  0.52223576  0.05894295    -0.09900
C1013       C  0.84613644  0.52136741  0.07088520    -0.10800
C1014       C  0.83585560  0.50493311  0.09037514     0.20800
C1015       C  0.84807620  0.48957933  0.09794369    -0.12800
C1016       C  0.87023486  0.49044700  0.08600675    -0.11100
C1017       C  0.81258140  0.50352211  0.10241929     0.01700
C1018       C  0.79296892  0.50214206  0.11241955    -0.31100
C1019       C  0.90272445  0.50693695  0.05382141     0.03100
C1020       C  0.92115308  0.50645720  0.04339702    -0.32800
H1021       H  0.87590625  0.53486586  0.04382724     0.14100
H1022       H  0.83690452  0.53334990  0.06484739     0.14000
H1023       H  0.84036080  0.47680242  0.11297819     0.13800
H1024       H  0.87933995  0.47831603  0.09196949     0.12900
C1025       C  0.15834913  0.67432424  0.09043568     0.19200
C1026       C  0.14808545  0.64620725  0.09632804    -0.09900
C1027       C  0.12631320  0.62467156  0.08396258    -0.10800
C1028       C  0.11465819  0.63110905  0.06562146     0.20800
C1029       C  0.12478836  0.65923080  0.05980801    -0.12800
C1030       C  0.14657648  0.68078171  0.07218250    -0.11100
C1031       C  0.09268970  0.60880648  0.05261623     0.01700
C1032       C  0.07468806  0.58945590  0.04199578    -0.31100
C1033       C  0.18118606  0.69646840  0.10291030     0.03100
C1034       C  0.20055062  0.71488978  0.11323555    -0.32800
H1035       H  0.15701665  0.64093502  0.11038568     0.14100
H1036       H  0.11869300  0.60302034  0.08860936     0.14000
H1037       H  0.11597910  0.66448169  0.04565265     0.13800
H1038       H  0.15433995  0.70243105  0.06744875     0.12900
C1039       C  0.37017695  0.88356980  0.56431680     0.19200
C1040       C  0.34954028  0.85919242  0.55367769    -0.09900
C1041       C  0.32848689  0.83729189  0.56635781    -0.10800
C1042       C  0.32796218  0.83963570  0.58974291     0.20800
C1043       C  0.34847432  0.86410230  0.60036846    -0.12800
C1044       C  0.36953061  0.88600740  0.58768606    -0.11100
C1045       C  0.30662216  0.81676458  0.60278464     0.01700
C1046       C  0.28863493  0.79712378  0.61322025    -0.31100
C1047       C  0.39246843  0.90571516  0.55139168     0.03100
C1048       C  0.41191388  0.92410318  0.54107972    -0.32800
H1049       H  0.34986447  0.85702520  0.53563686     0.14100
H1050       H  0.31275295  0.81846795  0.55795706     0.14000
H1051       H  0.34830531  0.86615350  0.61843203     0.13800
H1052       H  0.38542393  0.90472019  0.59610683     0.12900
C1053       C  0.50010708  0.16739542  0.58852827     0.19200
C1054       C  0.52052444  0.16007609  0.59243128    -0.09900
C1055       C  0.51935038  0.13747635  0.58101076    -0.10800
C1056       C  0.49775003  0.12204137  0.56561801     0.20800
C1057       C  0.47724277  0.12926498  0.56177501    -0.12800
C1058       C  0.47841751  0.15188426  0.57320660    -0.11100
C1059       C  0.49689962  0.09904721  0.55365250     0.01700
C1060       C  0.49695949  0.08011892  0.54373286    -0.31100
C1061       C  0.50147242  0.19079455  0.60024361     0.03100
C1062       C  0.50277848  0.21031746  0.61028430    -0.32800
H1063       H  0.53736986  0.17187163  0.60424970     0.14100
H1064       H  0.53532641  0.13210164  0.58412300     0.14000
H1065       H  0.46044305  0.11749793  0.54991452     0.13800
H1066       H  0.46248757  0.15731235  0.57006549     0.12900
C1067       C  0.49790256  0.83297383  0.41116122     0.19200
C1068       C  0.47355568  0.83173154  0.41921622    -0.09900
C1069       C  0.47534354  0.85464326  0.43065411    -0.10800
C1070       C  0.50147875  0.87894575  0.43411697     0.20800
C1071       C  0.52579756  0.88021513  0.42598179    -0.12800
C1072       C  0.52400997  0.85731538  0.41454695    -0.11100
C1073       C  0.50330183  0.90244323  0.44609734     0.01700
C1074       C  0.50412623  0.92170909  0.45623808    -0.31100
C1075       C  0.49623624  0.80934051  0.39952981     0.03100
C1076       C  0.49566779  0.78998001  0.38975298    -0.32800
H1077       H  0.45324242  0.81306630  0.41670923     0.14100
H1078       H  0.45637431  0.85338391  0.43684159     0.14000
H1079       H  0.54612052  0.89885410  0.42852432     0.13800
H1080       H  0.54298848  0.85856309  0.40839814     0.12900
C1081       C  0.67567390  0.16106507  0.41197637     0.19200
C1082       C  0.65451417  0.16440604  0.42156506    -0.09900
C1083       C  0.63287218  0.14241125  0.43372068    -0.10800
C1084       C  0.63225370  0.11693768  0.43636794     0.20800
C1085       C  0.65332418  0.11351019  0.42667926    -0.12800
C1086       C  0.67499389  0.13553359  0.41450703    -0.11100
C1087       C  0.60987068  0.09439121  0.44890889     0.01700
C1088       C  0.59040422  0.07608198  0.45924598    -0.31100
C1089       C  0.69805831  0.18389511  0.39964908     0.03100
C1090       C  0.71655498  0.20328026  0.38935942    -0.32800
H1091       H  0.65478326  0.18401705  0.41968575     0.14100
H1092       H  0.61664816  0.14527379  0.44107174     0.14000
H1093       H  0.65301454  0.09388008  0.42855363     0.13800
H1094       H  0.69121188  0.13268709  0.40712870     0.12900
C1095       C  0.66326648  0.49305514  0.90715587     0.19200
C1096       C  0.65024673  0.50657215  0.89734870    -0.09900
C1097       C  0.63058501  0.50994459  0.90952668    -0.10800
C1098       C  0.62382032  0.49985834  0.93160701     0.20800
C1099       C  0.63684484  0.48633785  0.94141595    -0.12800
C1100       C  0.65650527  0.48296525  0.92923847    -0.11100
C1101       C  0.60318457  0.50291020  0.94402843     0.01700
C1102       C  0.58529449  0.50453274  0.95431097    -0.31100
C1103       C  0.68367830  0.48971821  0.89467596     0.03100
C1104       C  0.70112341  0.48707799  0.88466126    -0.32800
H1105       H  0.65528242  0.51448749  0.88031101     0.14100
H1106       H  0.62062023  0.52035189  0.90171168     0.14000
H1107       H  0.63176063  0.47835887  0.95843509     0.13800
H1108       H  0.66641962  0.47249503  0.93703447     0.12900
C1109       C  0.50473492  0.62294066  0.93061140     0.19200
C1110       C  0.52277017  0.65148593  0.93521252    -0.09900
C1111       C  0.52047964  0.67193276  0.92302426    -0.10800
C1112       C  0.50013795  0.66397484  0.90616285     0.20800
C1113       C  0.48222313  0.63543742  0.90147084    -0.12800
C1114       C  0.48451116  0.61499859  0.91365434    -0.11100
C1115       C  0.49727249  0.68501215  0.89401556     0.01700
C1116       C  0.49452288  0.70260670  0.88418561    -0.31100
C1117       C  0.50667166  0.60176369  0.94340137     0.03100
C1118       C  0.50736923  0.58338959  0.95389330    -0.32800
H1119       H  0.53847188  0.65791779  0.94827936     0.14100
H1120       H  0.53443258  0.69391378  0.92684417     0.14000
H1121       H  0.46638607  0.62898955  0.88851290     0.13800
H1122       H  0.47041736  0.59301095  0.90993768     0.12900
C1123       C  0.50478448  0.33402974  0.08711286     0.19200
C1124       C  0.48407636  0.32593633  0.07053289    -0.09900
C1125       C  0.48096065  0.34627510  0.05893091    -0.10800
C1126       C  0.49852061  0.37481615  0.06386337     0.20800
C1127       C  0.51912934  0.38285672  0.08049423    -0.12800
C1128       C  0.52223957  0.36255305  0.09207550    -0.11100
C1129       C  0.49587904  0.39597720  0.05169820     0.01700
C1130       C  0.49515060  0.41464012  0.04170152    -0.31100
C1131       C  0.50835559  0.31324243  0.09897003     0.03100
C1132       C  0.51192862  0.29639328  0.10917250    -0.32800
H1133       H  0.47044209  0.30395902  0.06652391     0.14100
H1134       H  0.46498868  0.33977322  0.04608251     0.14000
H1135       H  0.53288321  0.40483790  0.08443922     0.13800
H1136       H  0.53832362  0.36910338  0.10483503     0.12900
C1137       C  0.33795527  0.50366013  0.08679490     0.19200
C1138       C  0.36267472  0.50904428  0.09766004    -0.09900
C1139       C  0.38243918  0.50497406  0.08635543    -0.10800
C1140       C  0.37761871  0.49545679  0.06411428     0.20800
C1141       C  0.35281053  0.48988563  0.05330244    -0.12800
C1142       C  0.33304562  0.49395785  0.06460761    -0.11100
C1143       C  0.39858063  0.49247834  0.05215168     0.01700
C1144       C  0.41692666  0.49153963  0.04199392    -0.31100
C1145       C  0.31764797  0.50801831  0.09840520     0.03100
C1146       C  0.30050221  0.51127407  0.10828320    -0.32800
H1147       H  0.36672601  0.51650948  0.11480917     0.14100
H1148       H  0.40157173  0.50947713  0.09488640     0.14000
H1149       H  0.34886364  0.48263588  0.03609412     0.13800
H1150       H  0.31401740  0.48967437  0.05601785     0.12900
C1151       C  0.50175422  0.16680350  0.91005417     0.19200
C1152       C  0.50405538  0.14592735  0.89872188    -0.09900
C1153       C  0.50227008  0.12317464  0.91061437    -0.10800
C1154       C  0.49814104  0.12111141  0.93391811     0.20800
C1155       C  0.49600586  0.14207871  0.94525781    -0.12800
C1156       C  0.49779337  0.16482753  0.93336812    -0.11100
C1157       C  0.49639586  0.09768101  0.94618256     0.01700
C1158       C  0.49574124  0.07837203  0.95631199    -0.31100
C1159       C  0.50307200  0.19001639  0.89778490     0.03100
C1160       C  0.50371218  0.20930913  0.88766419    -0.32800
H1161       H  0.50713056  0.14718778  0.88071327     0.14100
H1162       H  0.50406787  0.10718685  0.90164192     0.14000
H1163       H  0.49292347  0.14082243  0.96326466     0.13800
H1164       H  0.49599200  0.18081385  0.94234020     0.12900
C1165       C  0.32664827  0.83965338  0.91069810     0.19200
C1166       C  0.32629361  0.86426026  0.91534046    -0.09900
C1167       C  0.34773941  0.88554198  0.92811329    -0.10800
C1168       C  0.36964636  0.88232292  0.93633391     0.20800
C1169       C  0.37004586  0.85773163  0.93165797    -0.12800
C1170       C  0.34858704  0.83643774  0.91888161    -0.11100
C1171       C  0.39189752  0.90437551  0.94927304     0.01700
C1172       C  0.41121098  0.92277083  0.95962869    -0.31100
C1173       C  0.30426838  0.81758289  0.89787087     0.03100
C1174       C  0.28505116  0.79896603  0.88760143    -0.32800
H1175       H  0.30941921  0.86695992  0.90913430     0.14100
H1176       H  0.34724741  0.90448113  0.93156568     0.14000
H1177       H  0.38692295  0.85503760  0.93787108     0.13800
H1178       H  0.34906501  0.81748892  0.91543284     0.12900
C1179       C  0.63045088  0.11839593  0.06196720     0.19200
C1180       C  0.63907426  0.11337961  0.08272956    -0.09900
C1181       C  0.65934700  0.13581921  0.09540485    -0.10800
C1182       C  0.67107093  0.16339043  0.08739494     0.20800
C1183       C  0.66237020  0.16840833  0.06667124    -0.12800
C1184       C  0.64210089  0.14597203  0.05399789    -0.11100
C1185       C  0.69223359  0.18646335  0.10029432     0.01700
C1186       C  0.71026459  0.20569318  0.11096991    -0.31100
C1187       C  0.60914405  0.09536985  0.04912965     0.03100
C1188       C  0.59035016  0.07633962  0.03884386    -0.32800
H1189       H  0.63009631  0.09216438  0.08912604     0.14100
H1190       H  0.66589529  0.13168073  0.11140668     0.14000
H1191       H  0.67126995  0.18963021  0.06031035     0.13800
H1192       H  0.63547836  0.15012064  0.03803456     0.12900
C1193       C  0.50328398  0.83336378  0.08942702     0.19200
C1194       C  0.52195248  0.86125697  0.09555974    -0.09900
C1195       C  0.52308663  0.88333281  0.08311969    -0.10800
C1196       C  0.50557315  0.87766898  0.06445069     0.20800
C1197       C  0.48691520  0.84976942  0.05829773    -0.12800
C1198       C  0.48578127  0.82768545  0.07074203    -0.11100
C1199       C  0.50640357  0.90043805  0.05188562     0.01700
C1200       C  0.50654149  0.91945978  0.04174658    -0.31100
C1201       C  0.50225011  0.81064685  0.10220974     0.03100
C1202       C  0.50173196  0.79172368  0.11279210    -0.32800
H1203       H  0.53560620  0.86593263  0.10995098     0.14100
H1204       H  0.53754856  0.90479229  0.08809024     0.14000
H1205       H  0.47321360  0.84509847  0.04393945     0.13800
H1206       H  0.47127236  0.80622117  0.06581048     0.12900
loop_ 
_geom_bond_atom_site_label_1 
_geom_bond_atom_site_label_2 
_geom_bond_distance 
_geom_bond_site_symmetry_2 
_ccdc_geom_bond_type 
O1           C17   1.274       .  A
O1           Zn7   2.029   1_554  S
C2           O18   1.272       .  A
C2           O15   1.275       .  A
C2         C1172   1.436       .  S
O3           C16   1.276   1_545  A
O3          Cd10   2.081       .  S
O4           C22   1.276       .  A
O4          Cd13   2.090       .  S
O5           C19   1.274       .  A
O5           Cd9   2.074   1_545  S
O6           C17   1.273       .  A
O6           Cd9   2.074       .  S
Zn7          O18   2.011       .  S
Zn7          O20   2.028       .  S
Zn7          O12   1.954       .  S
O8           C19   1.276       .  A
O8          Cd13   2.090   1_554  S
Cd9          O11   2.068   1_565  S
Cd9          O12   2.005   1_554  S
Cd10         O14   2.078   1_556  S
Cd10         O23   2.073       .  S
Cd10         O12   2.006   1_545  S
O11          C21   1.273       .  A
O12         Cd13   2.014   1_565  S
Cd13         O15   2.083   1_545  S
O14          C21   1.275       .  A
C16          O20   1.275       .  A
C16         N341   1.445       .  S
C17        C1200   1.439       .  S
C19         N204   1.434       .  S
C21        C1188   1.436       .  S
C22          O23   1.273       .  A
C22        C1158   1.441       .  S
O24          C40   1.273       .  A
O24         Zn30   2.021       .  S
C25          O41   1.276       .  A
C25          O38   1.276       .  A
C25         N185   1.446       .  S
O26          C39   1.274       .  A
O26         Cd33   2.076       .  S
O27          C45   1.274       .  A
O27         Cd36   2.079   1_556  S
O28          C42   1.275       .  A
O28         Cd32   2.085       .  S
O29          C40   1.275       .  A
O29         Cd32   2.085       .  S
Zn30         O41   2.036       .  S
Zn30         O43   2.032   1_554  S
Zn30         O35   1.956   1_554  S
O31          C42   1.273       .  A
O31         Cd36   2.070       .  S
Cd32         O34   2.083   1_554  S
Cd32         O35   2.014   1_554  S
Cd33         O37   2.076       .  S
Cd33         O46   2.081       .  S
Cd33         O35   2.009       .  S
O34          C44   1.276       .  A
O35         Cd36   2.005   1_556  S
Cd36         O38   2.077       .  S
O37          C44   1.274       .  A
C39          O43   1.275       .  A
C39        C1118   1.440       .  S
C40        C1144   1.440       .  S
C42        C1130   1.439       .  S
C44         N360   1.433       .  S
C45          O46   1.275       .  A
C45        C1102   1.441       .  S
O47          C63   1.273       .  A
O47         Zn53   2.025       .  S
C48          O64   1.273       .  A
C48          O61   1.274       .  A
C48        C1088   1.436       .  S
O49          C62   1.276   1_565  A
O49         Cd56   2.073       .  S
O50          C68   1.276       .  A
O50         Cd59   2.086       .  S
O51          C65   1.274       .  A
O51         Cd55   2.074   1_565  S
O52          C63   1.273       .  A
O52         Cd55   2.071       .  S
Zn53         O64   2.015       .  S
Zn53         O66   2.028       .  S
Zn53         O58   1.955       .  S
O54          C65   1.276       .  A
O54         Cd59   2.085       .  S
Cd55         O57   2.070   1_545  S
Cd55         O58   2.005       .  S
Cd56         O60   2.078       .  S
Cd56         O69   2.073       .  S
Cd56         O58   2.003   1_565  S
O57          C67   1.273       .  A
O58         Cd59   2.010   1_545  S
Cd59         O61   2.078   1_565  S
O60          C67   1.274       .  A
C62          O66   1.274       .  A
C62         N154   1.444       .  S
C63        C1060   1.437       .  S
C65         N265   1.432       .  S
C67        C1048   1.436       .  S
C68          O69   1.274       .  A
C68        C1074   1.440       .  S
O70          C86   1.275       .  A
O70         Zn76   2.037   1_556  S
C71          O87   1.274       .  A
C71          O84   1.275       .  A
C71        C1032   1.438       .  S
O72          C85   1.276   1_655  A
O72         Cd79   2.077       .  S
O73          C91   1.275       .  A
O73         Cd82   2.082       .  S
O74          C88   1.274       .  A
O74         Cd78   2.076   1_655  S
O75          C86   1.274       .  A
O75         Cd78   2.078       .  S
Zn76         O87   2.023       .  S
Zn76         O89   2.040       .  S
Zn76         O81   1.957       .  S
O77          C88   1.276       .  A
O77         Cd82   2.085   1_556  S
Cd78         O80   2.070   1_455  S
Cd78         O81   2.007   1_556  S
Cd79         O83   2.077   1_554  S
Cd79         O92   2.078       .  S
Cd79         O81   2.006   1_655  S
O80          C90   1.273       .  A
O81         Cd82   2.012   1_455  S
Cd82         O84   2.078   1_655  S
O83          C90   1.274       .  A
C85          O89   1.276       .  A
C85         N223   1.446       .  S
C86        C1004   1.442       .  S
C88         N310   1.433       .  S
C90         C992   1.436       .  S
C91          O92   1.274       .  A
C91        C1020   1.440       .  S
O93         C109   1.273       .  A
O93         Zn99   2.017       .  S
C94         O110   1.274       .  A
C94         O107   1.274       .  A
C94         C934   1.441       .  S
O95         C108   1.276   1_655  A
O95        Cd102   2.079       .  S
O96         C114   1.274       .  A
O96        Cd105   2.071   1_655  S
O97         C111   1.275       .  A
O97        Cd101   2.081       .  S
O98         C109   1.274       .  A
O98        Cd101   2.073       .  S
Zn99        O110   2.032       .  S
Zn99        O112   2.033       .  S
Zn99        O104   1.954       .  S
O100        C111   1.274       .  A
O100       Cd105   2.078       .  S
Cd101       O103   2.079   1_455  S
Cd101       O104   2.009       .  S
Cd102       O106   2.077       .  S
Cd102       O115   2.074       .  S
Cd102       O104   2.006   1_655  S
O103        C113   1.274       .  A
O104       Cd105   2.007       .  S
Cd105       O107   2.078       .  S
O106        C113   1.274       .  A
C108        O112   1.276       .  A
C108        N116   1.446       .  S
C109        C964   1.434       .  S
C111        N303   1.433   1_455  S
C113        C976   1.440       .  S
C114        O115   1.274       .  A
C114        C950   1.435       .  S
N116        C120   1.360   1_455  A
N116        C117   1.360       .  A
C117        C906   1.441       .  S
C117        C118   1.379       .  A
C118        C119   1.371   1_455  A
C118        H121   1.083       .  S
C119        C120   1.379       .  A
C119        H122   1.083       .  S
C120        C920   1.441       .  S
C123       C1076   1.440       .  S
C123        N124   1.358       .  A
C123        N128   1.359       .  A
N124        C125   1.358       .  A
C125        C878   1.440       .  S
C125        N126   1.358       .  A
N126        C127   1.359       .  A
C127        C894   1.441       .  S
C127        N128   1.359       .  A
C129       C1090   1.437       .  S
C129        N130   1.358       .  A
C129        N134   1.357       .  A
N130        C131   1.358       .  A
C131        C922   1.438       .  S
C131        N132   1.358       .  A
N132        C133   1.358       .  A
C133        C864   1.437       .  S
C133        N134   1.357       .  A
N135        C245   1.433       .  S
N135        C139   1.355       .  A
N135        C136   1.355       .  A
C136        C892   1.443       .  S
C136        C137   1.380       .  A
C137        C138   1.375       .  A
C137        H140   1.082       .  S
C138        C139   1.380       .  A
C138        H141   1.082       .  S
C139        C852   1.442       .  S
C142        C978   1.440       .  S
C142        N143   1.359       .  A
C142        N147   1.359       .  A
N143        C144   1.358       .  A
C144        C836   1.442       .  S
C144        N145   1.359       .  A
N145        C146   1.359       .  A
C146        C850   1.441       .  S
C146        N147   1.359       .  A
C148        C962   1.435       .  S
C148        N149   1.357       .  A
C148        N153   1.357       .  A
N149        C150   1.357       .  A
C150        C822   1.437       .  S
C150        N151   1.359       .  A
N151        C152   1.359       .  A
C152        C808   1.438       .  S
C152        N153   1.357       .  A
N154        C158   1.359   1_545  A
N154        C155   1.360       .  A
C155        C794   1.443       .  S
C155        C156   1.380       .  A
C156        C157   1.373       .  A
C156        H159   1.083       .  S
C157        C158   1.379   1_545  A
C157        H160   1.082   1_545  S
C158        C824   1.441       .  S
C161        C782   1.438       .  S
C161        N162   1.358       .  A
C161        N166   1.358       .  A
N162        C163   1.358       .  A
C163        C766   1.439       .  S
C163        N164   1.358       .  A
N164        C165   1.358       .  A
C165        C908   1.439       .  S
C165        N166   1.358       .  A
C167        C754   1.441       .  S
C167        N168   1.359       .  A
C167        N172   1.359       .  A
N168        C169   1.359       .  A
C169        C796   1.441       .  S
C169        N170   1.358       .  A
N170        C171   1.358       .  A
C171        C738   1.441       .  S
C171        N172   1.359       .  A
C173       C1202   1.439       .  S
C173        N174   1.358       .  A
C173        N178   1.358       .  A
N174        C175   1.359       .  A
C175        C880   1.440       .  S
C175        N176   1.359       .  A
N176        C177   1.359       .  A
C177        C726   1.439       .  S
C177        N178   1.357       .  A
C179       C1186   1.437       .  S
C179        N180   1.358       .  A
C179        N184   1.358       .  A
N180        C181   1.357       .  A
C181        C866   1.437       .  S
C181        N182   1.358       .  A
N182        C183   1.358       .  A
C183        C712   1.438       .  S
C183        N184   1.358       .  A
N185        C189   1.361       .  A
N185        C186   1.360       .  A
C186        C724   1.442       .  S
C186        C187   1.379       .  A
C187        C188   1.371       .  A
C187        H190   1.083       .  S
C188        C189   1.379       .  A
C188        H191   1.083       .  S
C189        C696   1.442       .  S
C192       C1018   1.441       .  S
C192        N193   1.359       .  A
C192        N197   1.359       .  A
N193        C194   1.359       .  A
C194        C698   1.441       .  S
C194        N195   1.359       .  A
N195        C196   1.358       .  A
C196        C838   1.441       .  S
C196        N197   1.359       .  A
C198       C1034   1.438       .  S
C198        N199   1.358       .  A
C198        N203   1.358       .  A
N199        C200   1.358       .  A
C200        C684   1.439       .  S
C200        N201   1.358       .  A
N201        C202   1.358       .  A
C202        C810   1.439       .  S
C202        N203   1.358       .  A
N204        C208   1.355   1_545  A
N204        C205   1.356       .  A
C205        C668   1.443       .  S
C205        C206   1.380       .  A
C206        C207   1.375   1_545  A
C206        H209   1.082       .  S
C207        C208   1.380       .  A
C207        H210   1.082       .  S
C208        C682   1.441       .  S
C211       C1146   1.440       .  S
C211        N212   1.359       .  A
C211        N216   1.359       .  A
N212        C213   1.358       .  A
C213        C768   1.440       .  S
C213        N214   1.358       .  A
N214        C215   1.358       .  A
C215        C654   1.441       .  S
C215        N216   1.359       .  A
C217       C1132   1.440       .  S
C217        N218   1.358       .  A
C217        N222   1.358       .  A
N218        C219   1.359       .  A
C219        C670   1.441       .  S
C219        N220   1.359       .  A
N220        C221   1.359       .  A
C221        C740   1.441       .  S
C221        N222   1.358       .  A
N223        C227   1.361   1_455  A
N223        C224   1.361       .  A
C224        C656   1.443       .  S
C224        C225   1.379       .  A
C225        C226   1.371   1_455  A
C225        H228   1.083       .  S
C226        C227   1.378       .  A
C226        H229   1.083       .  S
C227        C710   1.443       .  S
O230        C246   1.276       .  A
O230       Zn236   2.043       .  S
C231        O247   1.277       .  A
C231        O244   1.273       .  A
C231        C640   1.442       .  S
O232        C245   1.274       .  A
O232       Cd239   2.073       .  S
O233        C251   1.275       .  A
O233       Cd242   2.079       .  S
O234        C248   1.275       .  A
O234       Cd238   2.075       .  S
O235        C246   1.272       .  A
O235       Cd238   2.060       .  S
Zn236       O247   2.048       .  S
Zn236       O249   2.039       .  S
Zn236       O241   1.964       .  S
O237        C248   1.277       .  A
O237       Cd242   2.085       .  S
Cd238       O240   2.073       .  S
Cd238       O241   2.003       .  S
Cd239       O243   2.079       .  S
Cd239       O252   2.079       .  S
Cd239       O241   2.009       .  S
O240        C250   1.273       .  A
O241       Cd242   2.007       .  S
Cd242       O244   2.070       .  S
O243        C250   1.274       .  A
C245        O249   1.276       .  A
C246        C628   1.438       .  S
C248        N284   1.445       .  S
C250        C780   1.438       .  S
C251        O252   1.275       .  A
C251        C752   1.440       .  S
C253        C626   1.439       .  S
C253        N254   1.358       .  A
C253        N258   1.359       .  A
N254        C255   1.358       .  A
C255        C612   1.438       .  S
C255        N256   1.357       .  A
N256        C257   1.357       .  A
C257        C598   1.439       .  S
C257        N258   1.359       .  A
C259        C642   1.443       .  S
C259        N260   1.359       .  A
C259        N264   1.360       .  A
N260        C261   1.359       .  A
C261        C586   1.440       .  S
C261        N262   1.358       .  A
N262        C263   1.358       .  A
C263        C570   1.441       .  S
C263        N264   1.359       .  A
N265        C269   1.353   1_565  A
N265        C266   1.353       .  A
C266        C614   1.440       .  S
C266        C267   1.380       .  A
C267        C268   1.375   1_565  A
C267        H270   1.082       .  S
C268        C269   1.380       .  A
C268        H271   1.082       .  S
C269        C556   1.440       .  S
C272        C948   1.436       .  S
C272        N273   1.358       .  A
C272        N277   1.358       .  A
N273        C274   1.357       .  A
C274        C542   1.437       .  S
C274        N275   1.358       .  A
N275        C276   1.358       .  A
C276        C558   1.437       .  S
C276        N277   1.357       .  A
C278        C936   1.440       .  S
C278        N279   1.359       .  A
C278        N283   1.358       .  A
N279        C280   1.359       .  A
C280        C514   1.442       .  S
C280        N281   1.359       .  A
N281        C282   1.359       .  A
C282        C528   1.440       .  S
C282        N283   1.358       .  A
N284        C288   1.360       .  A
N284        C285   1.360       .  A
C285        C500   1.442       .  S
C285        C286   1.379       .  A
C286        C287   1.371       .  A
C286        H289   1.083       .  S
C287        C288   1.379       .  A
C287        H290   1.083       .  S
C288        C530   1.443       .  S
C291       C1062   1.438       .  S
C291        N292   1.358       .  A
C291        N296   1.359       .  A
N292        C293   1.358       .  A
C293        C486   1.438       .  S
C293        N294   1.358       .  A
N294        C295   1.358       .  A
C295        C502   1.439       .  S
C295        N296   1.358       .  A
C297       C1046   1.437       .  S
C297        N298   1.358       .  A
C297        N302   1.357       .  A
N298        C299   1.359       .  A
C299        C458   1.438       .  S
C299        N300   1.358       .  A
N300        C301   1.358       .  A
C301        C472   1.437       .  S
C301        N302   1.357       .  A
N303        C307   1.353   1_655  A
N303        C304   1.354       .  A
C304        C584   1.441       .  S
C304        C305   1.380       .  A
C305        C306   1.375   1_655  A
C305        H308   1.082       .  S
C306        C307   1.380       .  A
C306        H309   1.082       .  S
C307        C474   1.440       .  S
N310        C314   1.352   1_655  A
N310        C311   1.353       .  A
C311        C444   1.440       .  S
C311        C312   1.380       .  A
C312        C313   1.376   1_655  A
C312        H315   1.083       .  S
C313        C314   1.380       .  A
C313        H316   1.082       .  S
C314        C432   1.438       .  S
C317       C1160   1.440       .  S
C317        N318   1.358       .  A
C317        N322   1.359       .  A
N318        C319   1.358       .  A
C319        C488   1.439       .  S
C319        N320   1.358       .  A
N320        C321   1.359       .  A
C321        C418   1.440       .  S
C321        N322   1.359       .  A
C323       C1174   1.436       .  S
C323        N324   1.358       .  A
C323        N328   1.357       .  A
N324        C325   1.358       .  A
C325        C460   1.438       .  S
C325        N326   1.357       .  A
N326        C327   1.358       .  A
C327        C430   1.436       .  S
C327        N328   1.356       .  A
C329       C1116   1.440       .  S
C329        N330   1.358       .  A
C329        N334   1.359       .  A
N330        C331   1.358       .  A
C331        C600   1.440       .  S
C331        N332   1.358       .  A
N332        C333   1.358       .  A
C333        C404   1.440       .  S
C333        N334   1.358       .  A
C335       C1104   1.440       .  S
C335        N336   1.359       .  A
C335        N340   1.358       .  A
N336        C337   1.360       .  A
C337        C572   1.441       .  S
C337        N338   1.358       .  A
N338        C339   1.358       .  A
C339        C446   1.438       .  S
C339        N340   1.357       .  A
N341        C345   1.360   1_565  A
N341        C342   1.361       .  A
C342        C402   1.443       .  S
C342        C343   1.379       .  A
C343        C344   1.371   1_565  A
C343        H346   1.083       .  S
C344        C345   1.379       .  A
C344        H347   1.083       .  S
C345        C388   1.441       .  S
C348        C990   1.437       .  S
C348        N349   1.358       .  A
C348        N353   1.358       .  A
N349        C350   1.358       .  A
C350        C390   1.438       .  S
C350        N351   1.358       .  A
N351        C352   1.357       .  A
C352        C544   1.437       .  S
C352        N353   1.357       .  A
C354       C1006   1.442       .  S
C354        N355   1.359       .  A
C354        N359   1.360       .  A
N355        C356   1.359       .  A
C356        C374   1.440       .  S
C356        N357   1.358       .  A
N357        C358   1.358       .  A
C358        C516   1.442       .  S
C358        N359   1.359       .  A
N360        C364   1.354       .  A
N360        C361   1.354       .  A
C361        C376   1.442       .  S
C361        C362   1.380       .  A
C362        C363   1.375       .  A
C362        H365   1.082       .  S
C363        C364   1.380       .  A
C363        H366   1.082       .  S
C364        C416   1.442       .  S
C367        C375   1.443       .  S
C367        C368   1.402       .  A
C367        C372   1.402       .  A
C368        C369   1.402       .  A
C368        H377   1.083       .  S
C369        C370   1.403       .  A
C369        H378   1.083       .  S
C370        C373   1.444       .  S
C370        C371   1.401       .  A
C371        C372   1.399       .  A
C371        H379   1.084       .  S
C372        H380   1.083       .  S
C373        C374   1.209       .  T
C375        C376   1.207       .  T
C381        C389   1.442       .  S
C381        C382   1.401       .  A
C381        C386   1.402       .  A
C382        C383   1.399       .  A
C382        H391   1.084       .  S
C383        C384   1.402       .  A
C383        H392   1.083       .  S
C384        C387   1.441       .  S
C384        C385   1.402       .  A
C385        C386   1.401       .  A
C385        H393   1.083       .  S
C386        H394   1.083       .  S
C387        C388   1.206       .  T
C389        C390   1.207       .  T
C395        C403   1.444       .  S
C395        C396   1.402       .  A
C395        C400   1.402       .  A
C396        C397   1.400       .  A
C396        H405   1.083       .  S
C397        C398   1.402       .  A
C397        H406   1.084       .  S
C398        C401   1.443       .  S
C398        C399   1.402       .  A
C399        C400   1.401       .  A
C399        H407   1.083       .  S
C400        H408   1.084       .  S
C401        C402   1.208       .  T
C403        C404   1.208       .  T
C409        C417   1.444       .  S
C409        C410   1.403       .  A
C409        C414   1.401       .  A
C410        C411   1.402       .  A
C410        H419   1.083       .  S
C411        C412   1.402       .  A
C411        H420   1.083       .  S
C412        C415   1.443       .  S
C412        C413   1.402       .  A
C413        C414   1.399       .  A
C413        H421   1.083       .  S
C414        H422   1.084       .  S
C415        C416   1.207       .  T
C417        C418   1.208       .  T
C423        C431   1.438       .  S
C423        C424   1.402       .  A
C423        C428   1.401       .  A
C424        C425   1.400       .  A
C424        H433   1.083       .  S
C425        C426   1.402       .  A
C425        H434   1.083       .  S
C426        C429   1.439       .  S
C426        C427   1.401       .  A
C427        C428   1.397       .  A
C427        H435   1.083       .  S
C428        H436   1.084       .  S
C429        C430   1.206       .  T
C431        C432   1.205       .  T
C437        C445   1.442       .  S
C437        C438   1.401       .  A
C437        C442   1.402       .  A
C438        C439   1.399       .  A
C438        H447   1.084       .  S
C439        C440   1.402       .  A
C439        H448   1.083       .  S
C440        C443   1.441       .  S
C440        C441   1.402       .  A
C441        C442   1.401       .  A
C441        H449   1.083       .  S
C442        H450   1.083       .  S
C443        C444   1.206       .  T
C445        C446   1.207       .  T
C451        C459   1.442       .  S
C451        C452   1.402       .  A
C451        C456   1.402       .  A
C452        C453   1.400       .  A
C452        H461   1.083       .  S
C453        C454   1.402       .  A
C453        H462   1.083       .  S
C454        C457   1.443       .  S
C454        C455   1.401       .  A
C455        C456   1.400       .  A
C455        H463   1.083       .  S
C456        H464   1.083       .  S
C457        C458   1.208       .  T
C459        C460   1.207       .  T
C465        C473   1.440       .  S
C465        C466   1.402       .  A
C465        C470   1.401       .  A
C466        C467   1.400       .  A
C466        H475   1.083       .  S
C467        C468   1.402       .  A
C467        H476   1.084       .  S
C468        C471   1.441       .  S
C468        C469   1.401       .  A
C469        C470   1.399       .  A
C469        H477   1.083       .  S
C470        H478   1.084       .  S
C471        C472   1.207       .  T
C473        C474   1.206       .  T
C479        C487   1.443       .  S
C479        C480   1.402       .  A
C479        C484   1.402       .  A
C480        C481   1.400       .  A
C480        H489   1.083       .  S
C481        C482   1.402       .  A
C481        H490   1.083       .  S
C482        C485   1.443       .  S
C482        C483   1.402       .  A
C483        C484   1.400       .  A
C483        H491   1.083       .  S
C484        H492   1.083       .  S
C485        C486   1.208       .  T
C487        C488   1.208       .  T
C493        C501   1.443       .  S
C493        C494   1.402       .  A
C493        C498   1.402       .  A
C494        C495   1.400       .  A
C494        H503   1.083       .  S
C495        C496   1.402       .  A
C495        H504   1.083       .  S
C496        C499   1.442       .  S
C496        C497   1.402       .  A
C497        C498   1.400       .  A
C497        H505   1.084       .  S
C498        H506   1.083       .  S
C499        C500   1.207       .  T
C501        C502   1.208       .  T
C507        C515   1.446       .  S
C507        C508   1.403       .  A
C507        C512   1.402       .  A
C508        C509   1.402       .  A
C508        H517   1.083       .  S
C509        C510   1.403       .  A
C509        H518   1.083       .  S
C510        C513   1.446       .  S
C510        C511   1.402       .  A
C511        C512   1.401       .  A
C511        H519   1.083       .  S
C512        H520   1.083       .  S
C513        C514   1.210       .  T
C515        C516   1.210       .  T
C521        C529   1.442       .  S
C521        C522   1.402       .  A
C521        C526   1.402       .  A
C522        C523   1.400       .  A
C522        H531   1.083       .  S
C523        C524   1.402       .  A
C523        H532   1.084       .  S
C524        C527   1.444       .  S
C524        C525   1.402       .  A
C525        C526   1.400       .  A
C525        H533   1.083       .  S
C526        H534   1.084       .  S
C527        C528   1.208       .  T
C529        C530   1.207       .  T
C535        C543   1.441       .  S
C535        C536   1.402       .  A
C535        C540   1.401       .  A
C536        C537   1.400       .  A
C536        H545   1.083       .  S
C537        C538   1.402       .  A
C537        H546   1.083       .  S
C538        C541   1.441       .  S
C538        C539   1.401       .  A
C539        C540   1.399       .  A
C539        H547   1.083       .  S
C540        H548   1.083       .  S
C541        C542   1.207       .  T
C543        C544   1.207       .  T
C549        C557   1.441       .  S
C549        C550   1.402       .  A
C549        C554   1.401       .  A
C550        C551   1.400       .  A
C550        H559   1.084       .  S
C551        C552   1.402       .  A
C551        H560   1.083       .  S
C552        C555   1.441       .  S
C552        C553   1.402       .  A
C553        C554   1.400       .  A
C553        H561   1.084       .  S
C554        H562   1.083       .  S
C555        C556   1.206       .  T
C557        C558   1.207       .  T
C563        C571   1.445       .  S
C563        C564   1.403       .  A
C563        C568   1.402       .  A
C564        C565   1.402       .  A
C564        H573   1.083       .  S
C565        C566   1.403       .  A
C565        H574   1.083       .  S
C566        C569   1.445       .  S
C566        C567   1.402       .  A
C567        C568   1.400       .  A
C567        H575   1.083       .  S
C568        H576   1.083       .  S
C569        C570   1.209       .  T
C571        C572   1.209       .  T
C577        C585   1.444       .  S
C577        C578   1.403       .  A
C577        C582   1.401       .  A
C578        C579   1.401       .  A
C578        H587   1.083       .  S
C579        C580   1.402       .  A
C579        H588   1.083       .  S
C580        C583   1.443       .  S
C580        C581   1.402       .  A
C581        C582   1.400       .  A
C581        H589   1.083       .  S
C582        H590   1.083       .  S
C583        C584   1.207       .  T
C585        C586   1.209       .  T
C591        C599   1.444       .  S
C591        C592   1.402       .  A
C591        C596   1.402       .  A
C592        C593   1.401       .  A
C592        H601   1.083       .  S
C593        C594   1.402       .  A
C593        H602   1.083       .  S
C594        C597   1.443       .  S
C594        C595   1.402       .  A
C595        C596   1.400       .  A
C595        H603   1.083       .  S
C596        H604   1.083       .  S
C597        C598   1.208       .  T
C599        C600   1.208       .  T
C605        C613   1.441       .  S
C605        C606   1.402       .  A
C605        C610   1.402       .  A
C606        C607   1.400       .  A
C606        H615   1.083       .  S
C607        C608   1.401       .  A
C607        H616   1.083       .  S
C608        C611   1.442       .  S
C608        C609   1.402       .  A
C609        C610   1.400       .  A
C609        H617   1.083       .  S
C610        H618   1.084       .  S
C611        C612   1.207       .  T
C613        C614   1.206       .  T
C619        C627   1.443       .  S
C619        C620   1.402       .  A
C619        C624   1.402       .  A
C620        C621   1.401       .  A
C620        H629   1.083       .  S
C621        C622   1.402       .  A
C621        H630   1.083       .  S
C622        C625   1.443       .  S
C622        C623   1.401       .  A
C623        C624   1.400       .  A
C623        H631   1.083       .  S
C624        H632   1.084       .  S
C625        C626   1.208       .  T
C627        C628   1.208       .  T
C633        C641   1.447       .  S
C633        C634   1.402       .  A
C633        C638   1.403       .  A
C634        C635   1.402       .  A
C634        H643   1.083       .  S
C635        C636   1.403       .  A
C635        H644   1.084       .  S
C636        C639   1.447       .  S
C636        C637   1.402       .  A
C637        C638   1.402       .  A
C637        H645   1.083       .  S
C638        H646   1.083       .  S
C639        C640   1.210       .  T
C641        C642   1.210       .  T
C647        C655   1.445       .  S
C647        C648   1.402       .  A
C647        C652   1.402       .  A
C648        C649   1.402       .  A
C648        H657   1.083       .  S
C649        C650   1.403       .  A
C649        H658   1.083       .  S
C650        C653   1.445       .  S
C650        C651   1.402       .  A
C651        C652   1.401       .  A
C651        H659   1.083       .  S
C652        H660   1.083       .  S
C653        C654   1.209       .  T
C655        C656   1.208       .  T
C661        C669   1.445       .  S
C661        C662   1.403       .  A
C661        C666   1.402       .  A
C662        C663   1.402       .  A
C662        H671   1.083       .  S
C663        C664   1.403       .  A
C663        H672   1.083       .  S
C664        C667   1.445       .  S
C664        C665   1.402       .  A
C665        C666   1.400       .  A
C665        H673   1.083       .  S
C666        H674   1.084       .  S
C667        C668   1.208       .  T
C669        C670   1.209       .  T
C675        C683   1.443       .  S
C675        C676   1.402       .  A
C675        C680   1.402       .  A
C676        C677   1.400       .  A
C676        H685   1.083       .  S
C677        C678   1.402       .  A
C677        H686   1.083       .  S
C678        C681   1.443       .  S
C678        C679   1.402       .  A
C679        C680   1.401       .  A
C679        H687   1.083       .  S
C680        H688   1.083       .  S
C681        C682   1.207       .  T
C683        C684   1.208       .  T
C689        C697   1.444       .  S
C689        C690   1.402       .  A
C689        C694   1.402       .  A
C690        C691   1.401       .  A
C690        H699   1.083       .  S
C691        C692   1.402       .  A
C691        H700   1.083       .  S
C692        C695   1.443       .  S
C692        C693   1.402       .  A
C693        C694   1.400       .  A
C693        H701   1.084       .  S
C694        H702   1.083       .  S
C695        C696   1.207       .  T
C697        C698   1.209       .  T
C703        C711   1.443       .  S
C703        C704   1.402       .  A
C703        C708   1.401       .  A
C704        C705   1.401       .  A
C704        H713   1.083       .  S
C705        C706   1.402       .  A
C705        H714   1.083       .  S
C706        C709   1.443       .  S
C706        C707   1.402       .  A
C707        C708   1.399       .  A
C707        H715   1.084       .  S
C708        H716   1.083       .  S
C709        C710   1.207       .  T
C711        C712   1.208       .  T
C717        C725   1.443       .  S
C717        C718   1.401       .  A
C717        C722   1.402       .  A
C718        C719   1.399       .  A
C718        H727   1.084       .  S
C719        C720   1.402       .  A
C719        H728   1.084       .  S
C720        C723   1.443       .  S
C720        C721   1.402       .  A
C721        C722   1.402       .  A
C721        H729   1.083       .  S
C722        H730   1.083       .  S
C723        C724   1.207       .  T
C725        C726   1.208       .  T
C731        C739   1.446       .  S
C731        C732   1.403       .  A
C731        C736   1.402       .  A
C732        C733   1.402       .  A
C732        H741   1.083       .  S
C733        C734   1.403       .  A
C733        H742   1.083       .  S
C734        C737   1.446       .  S
C734        C735   1.402       .  A
C735        C736   1.400       .  A
C735        H743   1.083       .  S
C736        H744   1.083       .  S
C737        C738   1.209       .  T
C739        C740   1.209       .  T
C745        C753   1.445       .  S
C745        C746   1.402       .  A
C745        C750   1.402       .  A
C746        C747   1.401       .  A
C746        H755   1.083       .  S
C747        C748   1.402       .  A
C747        H756   1.084       .  S
C748        C751   1.444       .  S
C748        C749   1.402       .  A
C749        C750   1.401       .  A
C749        H757   1.083       .  S
C750        H758   1.083       .  S
C751        C752   1.209       .  T
C753        C754   1.209       .  T
C759        C767   1.444       .  S
C759        C760   1.402       .  A
C759        C764   1.402       .  A
C760        C761   1.401       .  A
C760        H769   1.083       .  S
C761        C762   1.402       .  A
C761        H770   1.083       .  S
C762        C765   1.444       .  S
C762        C763   1.402       .  A
C763        C764   1.400       .  A
C763        H771   1.083       .  S
C764        H772   1.083       .  S
C765        C766   1.208       .  T
C767        C768   1.208       .  T
C773        C781   1.442       .  S
C773        C774   1.402       .  A
C773        C778   1.402       .  A
C774        C775   1.400       .  A
C774        H783   1.083       .  S
C775        C776   1.402       .  A
C775        H784   1.084       .  S
C776        C779   1.442       .  S
C776        C777   1.401       .  A
C777        C778   1.400       .  A
C777        H785   1.083       .  S
C778        H786   1.084       .  S
C779        C780   1.208       .  T
C781        C782   1.207       .  T
C787        C795   1.445       .  S
C787        C788   1.403       .  A
C787        C792   1.402       .  A
C788        C789   1.402       .  A
C788        H797   1.083       .  S
C789        C790   1.402       .  A
C789        H798   1.083       .  S
C790        C793   1.444       .  S
C790        C791   1.403       .  A
C791        C792   1.400       .  A
C791        H799   1.084       .  S
C792        H800   1.083       .  S
C793        C794   1.208       .  T
C795        C796   1.209       .  T
C801        C809   1.443       .  S
C801        C802   1.402       .  A
C801        C806   1.402       .  A
C802        C803   1.400       .  A
C802        H811   1.083       .  S
C803        C804   1.402       .  A
C803        H812   1.083       .  S
C804        C807   1.443       .  S
C804        C805   1.402       .  A
C805        C806   1.401       .  A
C805        H813   1.083       .  S
C806        H814   1.083       .  S
C807        C808   1.208       .  T
C809        C810   1.208       .  T
C815        C823   1.440       .  S
C815        C816   1.401       .  A
C815        C820   1.401       .  A
C816        C817   1.400       .  A
C816        H825   1.083       .  S
C817        C818   1.402       .  A
C817        H826   1.084       .  S
C818        C821   1.441       .  S
C818        C819   1.401       .  A
C819        C820   1.399       .  A
C819        H827   1.083       .  S
C820        H828   1.084       .  S
C821        C822   1.207       .  T
C823        C824   1.206       .  T
C829        C837   1.446       .  S
C829        C830   1.402       .  A
C829        C834   1.402       .  A
C830        C831   1.401       .  A
C830        H839   1.083       .  S
C831        C832   1.402       .  A
C831        H840   1.083       .  S
C832        C835   1.446       .  S
C832        C833   1.402       .  A
C833        C834   1.401       .  A
C833        H841   1.083       .  S
C834        H842   1.083       .  S
C835        C836   1.210       .  T
C837        C838   1.209       .  T
C843        C851   1.444       .  S
C843        C844   1.402       .  A
C843        C848   1.402       .  A
C844        C845   1.401       .  A
C844        H853   1.083       .  S
C845        C846   1.402       .  A
C845        H854   1.084       .  S
C846        C849   1.445       .  S
C846        C847   1.402       .  A
C847        C848   1.401       .  A
C847        H855   1.083       .  S
C848        H856   1.083       .  S
C849        C850   1.209       .  T
C851        C852   1.208       .  T
C857        C865   1.442       .  S
C857        C858   1.402       .  A
C857        C862   1.402       .  A
C858        C859   1.400       .  A
C858        H867   1.083       .  S
C859        C860   1.402       .  A
C859        H868   1.083       .  S
C860        C863   1.441       .  S
C860        C861   1.401       .  A
C861        C862   1.399       .  A
C861        H869   1.083       .  S
C862        H870   1.083       .  S
C863        C864   1.207       .  T
C865        C866   1.207       .  T
C871        C879   1.444       .  S
C871        C872   1.402       .  A
C871        C876   1.402       .  A
C872        C873   1.401       .  A
C872        H881   1.083       .  S
C873        C874   1.402       .  A
C873        H882   1.083       .  S
C874        C877   1.444       .  S
C874        C875   1.402       .  A
C875        C876   1.401       .  A
C875        H883   1.083       .  S
C876        H884   1.083       .  S
C877        C878   1.209       .  T
C879        C880   1.209       .  T
C885        C893   1.445       .  S
C885        C886   1.403       .  A
C885        C890   1.402       .  A
C886        C887   1.402       .  A
C886        H895   1.083       .  S
C887        C888   1.402       .  A
C887        H896   1.083       .  S
C888        C891   1.444       .  S
C888        C889   1.402       .  A
C889        C890   1.400       .  A
C889        H897   1.083       .  S
C890        H898   1.084       .  S
C891        C892   1.208       .  T
C893        C894   1.209       .  T
C899        C907   1.443       .  S
C899        C900   1.403       .  A
C899        C904   1.401       .  A
C900        C901   1.402       .  A
C900        H909   1.083       .  S
C901        C902   1.402       .  A
C901        H910   1.083       .  S
C902        C905   1.442       .  S
C902        C903   1.402       .  A
C903        C904   1.398       .  A
C903        H911   1.084       .  S
C904        H912   1.083       .  S
C905        C906   1.207       .  T
C907        C908   1.208       .  T
C913        C921   1.442       .  S
C913        C914   1.401       .  A
C913        C918   1.402       .  A
C914        C915   1.399       .  A
C914        H923   1.084       .  S
C915        C916   1.402       .  A
C915        H924   1.083       .  S
C916        C919   1.442       .  S
C916        C917   1.402       .  A
C917        C918   1.400       .  A
C917        H925   1.084       .  S
C918        H926   1.083       .  S
C919        C920   1.207       .  T
C921        C922   1.208       .  T
C927        C935   1.445       .  S
C927        C928   1.402       .  A
C927        C932   1.402       .  A
C928        C929   1.401       .  A
C928        H937   1.083       .  S
C929        C930   1.402       .  A
C929        H938   1.083       .  S
C930        C933   1.445       .  S
C930        C931   1.402       .  A
C931        C932   1.401       .  A
C931        H939   1.083       .  S
C932        H940   1.083       .  S
C933        C934   1.209       .  T
C935        C936   1.209       .  T
C941        C949   1.440       .  S
C941        C942   1.401       .  A
C941        C946   1.402       .  A
C942        C943   1.399       .  A
C942        H951   1.083       .  S
C943        C944   1.401       .  A
C943        H952   1.084       .  S
C944        C947   1.440       .  S
C944        C945   1.401       .  A
C945        C946   1.399       .  A
C945        H953   1.083       .  S
C946        H954   1.084       .  S
C947        C948   1.206       .  T
C949        C950   1.206       .  T
C955        C963   1.439       .  S
C955        C956   1.401       .  A
C955        C960   1.401       .  A
C956        C957   1.398       .  A
C956        H965   1.084       .  S
C957        C958   1.401       .  A
C957        H966   1.083       .  S
C958        C961   1.439       .  S
C958        C959   1.402       .  A
C959        C960   1.399       .  A
C959        H967   1.084       .  S
C960        H968   1.083       .  S
C961        C962   1.206       .  T
C963        C964   1.206       .  T
C969        C977   1.444       .  S
C969        C970   1.402       .  A
C969        C974   1.402       .  A
C970        C971   1.401       .  A
C970        H979   1.083       .  S
C971        C972   1.402       .  A
C971        H980   1.083       .  S
C972        C975   1.444       .  S
C972        C973   1.402       .  A
C973        C974   1.401       .  A
C973        H981   1.083       .  S
C974        H982   1.083       .  S
C975        C976   1.209       .  T
C977        C978   1.209       .  T
C983        C991   1.441       .  S
C983        C984   1.402       .  A
C983        C988   1.401       .  A
C984        C985   1.400       .  A
C984        H993   1.083       .  S
C985        C986   1.402       .  A
C985        H994   1.083       .  S
C986        C989   1.441       .  S
C986        C987   1.401       .  A
C987        C988   1.399       .  A
C987        H995   1.083       .  S
C988        H996   1.084       .  S
C989        C990   1.207       .  T
C991        C992   1.206       .  T
C997       C1005   1.446       .  S
C997        C998   1.402       .  A
C997       C1002   1.403       .  A
C998        C999   1.401       .  A
C998       H1007   1.083       .  S
C999       C1000   1.403       .  A
C999       H1008   1.083       .  S
C1000      C1003   1.446       .  S
C1000      C1001   1.402       .  A
C1001      C1002   1.402       .  A
C1001      H1009   1.083       .  S
C1002      H1010   1.083       .  S
C1003      C1004   1.210       .  T
C1005      C1006   1.210       .  T
C1011      C1019   1.445       .  S
C1011      C1012   1.402       .  A
C1011      C1016   1.402       .  A
C1012      C1013   1.401       .  A
C1012      H1021   1.083       .  S
C1013      C1014   1.402       .  A
C1013      H1022   1.083       .  S
C1014      C1017   1.445       .  S
C1014      C1015   1.402       .  A
C1015      C1016   1.401       .  A
C1015      H1023   1.083       .  S
C1016      H1024   1.083       .  S
C1017      C1018   1.209       .  T
C1019      C1020   1.209       .  T
C1025      C1033   1.442       .  S
C1025      C1026   1.401       .  A
C1025      C1030   1.402       .  A
C1026      C1027   1.399       .  A
C1026      H1035   1.084       .  S
C1027      C1028   1.402       .  A
C1027      H1036   1.083       .  S
C1028      C1031   1.442       .  S
C1028      C1029   1.402       .  A
C1029      C1030   1.400       .  A
C1029      H1037   1.084       .  S
C1030      H1038   1.083       .  S
C1031      C1032   1.207       .  T
C1033      C1034   1.207       .  T
C1039      C1047   1.441       .  S
C1039      C1040   1.401       .  A
C1039      C1044   1.402       .  A
C1040      C1041   1.399       .  A
C1040      H1049   1.083       .  S
C1041      C1042   1.402       .  A
C1041      H1050   1.084       .  S
C1042      C1045   1.441       .  S
C1042      C1043   1.401       .  A
C1043      C1044   1.400       .  A
C1043      H1051   1.083       .  S
C1044      H1052   1.084       .  S
C1045      C1046   1.207       .  T
C1047      C1048   1.207       .  T
C1053      C1061   1.442       .  S
C1053      C1054   1.401       .  A
C1053      C1058   1.402       .  A
C1054      C1055   1.399       .  A
C1054      H1063   1.083       .  S
C1055      C1056   1.401       .  A
C1055      H1064   1.084       .  S
C1056      C1059   1.442       .  S
C1056      C1057   1.402       .  A
C1057      C1058   1.400       .  A
C1057      H1065   1.083       .  S
C1058      H1066   1.083       .  S
C1059      C1060   1.207       .  T
C1061      C1062   1.207       .  T
C1067      C1075   1.444       .  S
C1067      C1068   1.402       .  A
C1067      C1072   1.402       .  A
C1068      C1069   1.401       .  A
C1068      H1077   1.083       .  S
C1069      C1070   1.403       .  A
C1069      H1078   1.084       .  S
C1070      C1073   1.445       .  S
C1070      C1071   1.402       .  A
C1071      C1072   1.400       .  A
C1071      H1079   1.083       .  S
C1072      H1080   1.084       .  S
C1073      C1074   1.209       .  T
C1075      C1076   1.209       .  T
C1081      C1089   1.441       .  S
C1081      C1082   1.401       .  A
C1081      C1086   1.402       .  A
C1082      C1083   1.398       .  A
C1082      H1091   1.083       .  S
C1083      C1084   1.401       .  A
C1083      H1092   1.084       .  S
C1084      C1087   1.441       .  S
C1084      C1085   1.402       .  A
C1085      C1086   1.400       .  A
C1085      H1093   1.083       .  S
C1086      H1094   1.083       .  S
C1087      C1088   1.206       .  T
C1089      C1090   1.207       .  T
C1095      C1103   1.445       .  S
C1095      C1096   1.402       .  A
C1095      C1100   1.402       .  A
C1096      C1097   1.401       .  A
C1096      H1105   1.083       .  S
C1097      C1098   1.402       .  A
C1097      H1106   1.083       .  S
C1098      C1101   1.445       .  S
C1098      C1099   1.402       .  A
C1099      C1100   1.401       .  A
C1099      H1107   1.083       .  S
C1100      H1108   1.084       .  S
C1101      C1102   1.209       .  T
C1103      C1104   1.209       .  T
C1109      C1117   1.444       .  S
C1109      C1110   1.402       .  A
C1109      C1114   1.402       .  A
C1110      C1111   1.401       .  A
C1110      H1119   1.083       .  S
C1111      C1112   1.402       .  A
C1111      H1120   1.083       .  S
C1112      C1115   1.444       .  S
C1112      C1113   1.402       .  A
C1113      C1114   1.400       .  A
C1113      H1121   1.083       .  S
C1114      H1122   1.084       .  S
C1115      C1116   1.208       .  T
C1117      C1118   1.209       .  T
C1123      C1131   1.444       .  S
C1123      C1124   1.403       .  A
C1123      C1128   1.401       .  A
C1124      C1125   1.402       .  A
C1124      H1133   1.083       .  S
C1125      C1126   1.402       .  A
C1125      H1134   1.083       .  S
C1126      C1129   1.444       .  S
C1126      C1127   1.402       .  A
C1127      C1128   1.399       .  A
C1127      H1135   1.084       .  S
C1128      H1136   1.083       .  S
C1129      C1130   1.208       .  T
C1131      C1132   1.209       .  T
C1137      C1145   1.445       .  S
C1137      C1138   1.402       .  A
C1137      C1142   1.402       .  A
C1138      C1139   1.401       .  A
C1138      H1147   1.083       .  S
C1139      C1140   1.402       .  A
C1139      H1148   1.084       .  S
C1140      C1143   1.445       .  S
C1140      C1141   1.402       .  A
C1141      C1142   1.401       .  A
C1141      H1149   1.083       .  S
C1142      H1150   1.083       .  S
C1143      C1144   1.209       .  T
C1145      C1146   1.209       .  T
C1151      C1159   1.445       .  S
C1151      C1152   1.402       .  A
C1151      C1156   1.402       .  A
C1152      C1153   1.401       .  A
C1152      H1161   1.083       .  S
C1153      C1154   1.403       .  A
C1153      H1162   1.083       .  S
C1154      C1157   1.445       .  S
C1154      C1155   1.402       .  A
C1155      C1156   1.401       .  A
C1155      H1163   1.083       .  S
C1156      H1164   1.083       .  S
C1157      C1158   1.209       .  T
C1159      C1160   1.209       .  T
C1165      C1173   1.441       .  S
C1165      C1166   1.401       .  A
C1165      C1170   1.402       .  A
C1166      C1167   1.399       .  A
C1166      H1175   1.083       .  S
C1167      C1168   1.401       .  A
C1167      H1176   1.083       .  S
C1168      C1171   1.441       .  S
C1168      C1169   1.402       .  A
C1169      C1170   1.400       .  A
C1169      H1177   1.084       .  S
C1170      H1178   1.083       .  S
C1171      C1172   1.207       .  T
C1173      C1174   1.206       .  T
C1179      C1187   1.441       .  S
C1179      C1180   1.402       .  A
C1179      C1184   1.401       .  A
C1180      C1181   1.400       .  A
C1180      H1189   1.083       .  S
C1181      C1182   1.402       .  A
C1181      H1190   1.083       .  S
C1182      C1185   1.441       .  S
C1182      C1183   1.401       .  A
C1183      C1184   1.399       .  A
C1183      H1191   1.083       .  S
C1184      H1192   1.083       .  S
C1185      C1186   1.207       .  T
C1187      C1188   1.206       .  T
C1193      C1201   1.443       .  S
C1193      C1194   1.402       .  A
C1193      C1198   1.402       .  A
C1194      C1195   1.400       .  A
C1194      H1203   1.083       .  S
C1195      C1196   1.402       .  A
C1195      H1204   1.083       .  S
C1196      C1199   1.443       .  S
C1196      C1197   1.402       .  A
C1197      C1198   1.401       .  A
C1197      H1205   1.083       .  S
C1198      H1206   1.083       .  S
C1199      C1200   1.208       .  T
C1201      C1202   1.208       .  T
