geometry optimzed in LAMMPS
_audit_creation_date              2020-11-30 
_audit_creation_method            'lammps2cif' 
_symmetry_space_group_name_H-M    'P1' 
_symmetry_Int_Tables_number       1 
_symmetry_cell_setting            triclinic 
loop_ 
_symmetry_equiv_pos_as_xyz 
  x,y,z 
_cell_length_a                    33.98561288 
_cell_length_b                    34.20179399426908 
_cell_length_c                    37.91438428363664 
_cell_angle_alpha                 90.71450063138211 
_cell_angle_beta                  89.71920109703139 
_cell_angle_gamma                 90.49151294821895 
loop_ 
_atom_site_label 
_atom_site_type_symbol 
_atom_site_fract_x 
_atom_site_fract_y 
_atom_site_fract_z 
_atom_site_charge 
O1          O  0.96571409  0.88964672  0.98165847    -0.74300
O2          O  0.97470032  0.99619616  0.95025210    -0.74400
O3          O  0.01965108  0.94821872  0.99012522    -0.74400
O4          O  0.92191168  0.93738901  0.94143804    -0.74500
O5          O  0.89002006  0.95958147  0.98903323    -0.74400
O6          O  0.98800125  0.96670239  0.03909901    -0.74400
O7          O  0.94464799  0.01610360  0.99945964    -0.74400
O8          O  0.93213442  0.91060111  0.02887581    -0.74400
Ni9        Ni  0.97181214  0.94218884  0.96418273     1.25400
Ni10       Ni  0.93773211  0.96404062  0.01586649     1.25400
C11         C  0.94617376  0.88277008  0.00999676     0.87800
C12         C  0.95972972  0.02361498  0.96933682     0.87800
C13         C  0.02003764  0.95835717  0.02274679     0.87800
C14         C  0.88983515  0.94637469  0.95721270     0.88000
O15         O  0.56498692  0.40950187  0.74957432    -0.74300
O16         O  0.56365371  0.51504286  0.78540881    -0.74400
O17         O  0.51159471  0.46778262  0.75187357    -0.74400
O18         O  0.61646699  0.45604422  0.78359608    -0.74500
O19         O  0.63996466  0.47702886  0.73213155    -0.74400
O20         O  0.53333796  0.48972787  0.70028146    -0.74400
O21         O  0.58677321  0.53623336  0.73391619    -0.74400
O22         O  0.58717754  0.43156236  0.69814082    -0.74400
Ni23       Ni  0.56334537  0.46149237  0.76944641     1.25400
Ni24       Ni  0.58755735  0.48456056  0.71426569     1.25400
C25         C  0.57712106  0.40314812  0.71793737     0.87800
C26         C  0.57475419  0.54305078  0.76541408     0.87800
C27         C  0.50481469  0.48026711  0.72086974     0.87800
C28         C  0.64543490  0.46279691  0.76285499     0.88000
C29         C  0.29814012  0.93181672  0.11346407     0.86600
C30         C  0.32339907  0.93362638  0.07976025    -0.53700
C31         C  0.36280908  0.92887171  0.08492631     0.09500
C32         C  0.37391303  0.92325066  0.12398809     0.20500
C33         C  0.30934291  0.89276715  0.13094616    -0.54400
C34         C  0.34905330  0.88775869  0.13581311     0.09600
C35         C  0.31674749  0.96270233  0.13840414    -0.53900
C36         C  0.35586639  0.95801363  0.14435179     0.10200
H37         H  0.31092120  0.93764305  0.05374314     0.14700
H38         H  0.40592166  0.92008222  0.12873154     0.00400
H39         H  0.28769676  0.87113367  0.13908512     0.15000
H40         H  0.30072735  0.98474100  0.15314452     0.14800
C41         C  0.47435393  0.21289127  0.34967219     0.86600
C42         C  0.47246783  0.18390668  0.31826663    -0.53700
C43         C  0.46312911  0.14630734  0.32730465     0.09500
C44         C  0.45794527  0.14068120  0.36724667     0.20500
C45         C  0.43472604  0.20762082  0.36883531    -0.54400
C46         C  0.42593183  0.17010823  0.37795494     0.09600
C47         C  0.50447839  0.19443519  0.37485455    -0.53900
C48         C  0.49577532  0.15683848  0.38427618     0.10200
H49         H  0.47564827  0.19282961  0.29100816     0.14700
H50         H  0.45104241  0.11004388  0.37449521     0.00400
H51         H  0.41443158  0.23155575  0.37306488     0.15000
H52         H  0.53005562  0.20913488  0.38560596     0.14800
C53         C  0.57547468  0.82777594  0.84354201     0.86600
C54         C  0.57284858  0.85939268  0.81484536    -0.53700
C55         C  0.57777091  0.89696915  0.82702606     0.09500
C56         C  0.58491844  0.89954206  0.86716185     0.20500
C57         C  0.61588686  0.83605674  0.86020214    -0.54400
C58         C  0.62077738  0.87327420  0.87264809     0.09600
C59         C  0.54514361  0.84021885  0.87147550    -0.53900
C60         C  0.55020214  0.87735517  0.88425276     0.10200
H61         H  0.57241733  0.85328447  0.78683439     0.14700
H62         H  0.58913955  0.92979986  0.87753451     0.00400
H63         H  0.63944306  0.81478095  0.86046919     0.15000
H64         H  0.52233884  0.82071063  0.88133934     0.14800
C65         C  0.73876541  0.10515316  0.60788001     0.86600
C66         C  0.71158240  0.09562639  0.57673280    -0.53700
C67         C  0.67255271  0.09877916  0.58426590     0.09500
C68         C  0.66370718  0.11088255  0.62267172     0.20500
C69         C  0.72567079  0.14662331  0.61985803    -0.54400
C70         C  0.68662373  0.14938477  0.62841246     0.09600
C71         C  0.72461290  0.07864919  0.63801599    -0.53900
C72         C  0.68538020  0.08124988  0.64540266     0.10200
H73         H  0.72243642  0.08955903  0.55023007     0.14700
H74         H  0.63177843  0.11245332  0.62877136     0.00400
H75         H  0.74457740  0.17214427  0.62119843     0.15000
H76         H  0.74390545  0.05914589  0.65210038     0.14800
O77         O  0.08026720  0.14696570  0.48882683    -0.74300
O78         O  0.07543856  0.04116716  0.45365088    -0.74400
O79         O  0.02515752  0.08906469  0.48928979    -0.74400
O80         O  0.12927352  0.09985157  0.45298533    -0.74500
O81         O  0.15389965  0.07905639  0.50354753    -0.74400
O82         O  0.04864249  0.06786423  0.54023352    -0.74400
O83         O  0.09934754  0.02081802  0.50465729    -0.74400
O84         O  0.10373436  0.12528536  0.53978696    -0.74400
Ni85       Ni  0.07651998  0.09490986  0.46939478     1.25400
Ni86       Ni  0.10217130  0.07239561  0.52386078     1.25400
C87         C  0.09393835  0.15336825  0.51984794     0.87800
C88         C  0.08766116  0.01352730  0.47328985     0.87800
C89         C  0.01946907  0.07705444  0.52071580     0.87800
C90         C  0.15887860  0.09197969  0.47215353     0.88000
O91         O  0.40192846  0.55940786  0.25902287    -0.74300
O92         O  0.50824233  0.55712583  0.22286356    -0.74400
O93         O  0.46166556  0.50640093  0.25842042    -0.74400
O94         O  0.44767981  0.60908816  0.22280873    -0.74500
O95         O  0.46861106  0.63530058  0.27338570    -0.74400
O96         O  0.48362637  0.53090176  0.30938264    -0.74400
O97         O  0.52925701  0.58283336  0.27364266    -0.74400
O98         O  0.42419502  0.58424150  0.30957435    -0.74400
Ni99       Ni  0.45422132  0.55700112  0.23902961     1.25400
Ni100      Ni  0.47734802  0.58411302  0.29330206     1.25400
C101        C  0.39542974  0.57386175  0.28994138     0.87800
C102        C  0.53635883  0.57006691  0.24241948     0.87800
C103        C  0.47514307  0.50135994  0.28946760     0.87800
C104        C  0.45385625  0.63917683  0.24247724     0.88000
C105        C  0.21764718  0.46065263  0.65201430     0.86600
C106        C  0.18873635  0.45948357  0.68317186    -0.53700
C107        C  0.15068456  0.45259568  0.67368424     0.09500
C108        C  0.14437164  0.44785055  0.63378890     0.20500
C109        C  0.21066067  0.42190757  0.63157827    -0.54400
C110        C  0.17224535  0.41472371  0.62252854     0.09600
C111        C  0.20075344  0.49146167  0.62716786    -0.53900
C112        C  0.16286110  0.48458817  0.61738302     0.10200
H113        H  0.19786484  0.46180369  0.71054475     0.14700
H114        H  0.11306519  0.44265837  0.62695683     0.00400
H115        H  0.23416787  0.40170619  0.62511934     0.15000
H116        H  0.21736757  0.51486898  0.61503078     0.14800
C117        C  0.93433843  0.30312262  0.88807963     0.86600
C118        C  0.93757378  0.32689434  0.92253152    -0.53700
C119        C  0.93420305  0.36625693  0.91878605     0.09500
C120        C  0.92850846  0.37883932  0.88021435     0.20500
C121        C  0.89456918  0.31638497  0.87227109    -0.54400
C122        C  0.89162960  0.35608273  0.86812264     0.09600
C123        C  0.96508509  0.32066490  0.86308810    -0.53900
C124        C  0.96214763  0.35998272  0.85890734     0.10200
H125        H  0.94092965  0.31341630  0.94812874     0.14700
H126        H  0.92671604  0.41090451  0.87648022     0.00400
H127        H  0.87073947  0.29711833  0.86436887     0.15000
H128        H  0.98644390  0.30314055  0.84865863     0.14800
C129        C  0.09474861  0.72947097  0.39513743     0.86600
C130        C  0.09283665  0.70562360  0.42908033    -0.53700
C131        C  0.09375936  0.66618206  0.42379216     0.09500
C132        C  0.09684150  0.65369686  0.38479234     0.20500
C133        C  0.13283715  0.71454583  0.37695258    -0.54400
C134        C  0.13354687  0.67510464  0.37097191     0.09600
C135        C  0.06144498  0.71322216  0.37162107    -0.53900
C136        C  0.06248399  0.67364375  0.36635249     0.10200
H137        H  0.09258446  0.71889742  0.45527025     0.14700
H138        H  0.09754185  0.62152354  0.38048916     0.00400
H139        H  0.15831399  0.73218041  0.37060897     0.15000
H140        H  0.04022788  0.73173793  0.35870717     0.14800
C141        C  0.81764009  0.58717759  0.14875544     0.86600
C142        C  0.84745205  0.58882612  0.17908582    -0.53700
C143        C  0.88609561  0.59148909  0.16885287     0.09500
C144        C  0.89143375  0.59223387  0.12834407     0.20500
C145        C  0.82778410  0.62429644  0.12738595    -0.54400
C146        C  0.86613401  0.62684083  0.11657154     0.09600
C147        C  0.83110364  0.55346416  0.12470124    -0.53900
C148        C  0.86948848  0.55575527  0.11415490     0.10200
H149        H  0.83843024  0.58901174  0.20661083     0.14700
H150        H  0.92249154  0.59384484  0.11935959     0.00400
H151        H  0.80783910  0.64782403  0.12186360     0.15000
H152        H  0.81137510  0.53031773  0.11564422     0.14800
C153        C  0.91830324  0.59507096  0.19551446    -0.11900
C154        C  0.94875046  0.62354631  0.19354978     0.03600
C155        C  0.97380382  0.62977440  0.22223565    -0.12400
C156        C  0.96992962  0.60797681  0.25305792     0.18500
C157        C  0.94135709  0.57806350  0.25448026    -0.09500
C158        C  0.91599201  0.57179557  0.22590833    -0.02400
H159        H  0.99565671  0.65299803  0.22102743     0.05000
C160        C  0.99373180  0.61967301  0.28413601     0.20400
H161        H  0.89361524  0.54916201  0.22784023     0.10200
C162        C  0.97478947  0.63648958  0.31356339    -0.15800
C163        C  0.99653018  0.65327255  0.34121632     0.03100
C164        C  0.03793820  0.65321875  0.33969384    -0.11100
C165        C  0.05683776  0.63489285  0.31105788    -0.01100
C166        C  0.03515080  0.61852365  0.28325658    -0.06300
H167        H  0.94295436  0.63774339  0.31444661     0.06200
H168        H  0.08869007  0.63461050  0.30964597     0.09500
Br169      Br  0.93579812  0.54531562  0.29493493    -0.06000
Br170      Br  0.95694537  0.65787195  0.15471079    -0.02900
Br171      Br  0.96835835  0.67550955  0.38042957    -0.00100
Br172      Br  0.06345097  0.59568699  0.24435856    -0.04500
C173        C  0.93054757  0.39312433  0.94969689    -0.11900
C174        C  0.90190225  0.38658717  0.97624193     0.03600
C175        C  0.89766623  0.41344628  0.00403770    -0.12400
C176        C  0.92113180  0.44724402  0.00595578     0.18500
C177        C  0.95012177  0.45358788  0.97994968    -0.09500
C178        C  0.95456133  0.42666113  0.95197875    -0.02400
H179        H  0.87463151  0.40888275  0.02345946     0.05000
C180        C  0.91098975  0.47747161  0.03268623     0.20400
H181        H  0.97644654  0.43214894  0.93172613     0.10200
C182        C  0.93106839  0.47969663  0.06497521    -0.15800
C183        C  0.91877063  0.50574997  0.09173922     0.03100
C184        C  0.88537419  0.52911467  0.08652766    -0.11100
C185        C  0.86579225  0.52699155  0.05408869    -0.01100
C186        C  0.87874224  0.50209175  0.02714368    -0.06300
H187        H  0.95580047  0.46068437  0.06956408     0.06200
H188        H  0.84053046  0.54534206  0.04951134     0.09500
Br189      Br  0.98283229  0.49948301  0.98091043    -0.06000
Br190      Br  0.86423020  0.34437773  0.97387189    -0.02900
Br191      Br  0.94674941  0.50666923  0.13554078    -0.00100
Br192      Br  0.85160802  0.50302619  0.98297512    -0.04500
C193        C  0.98565014  0.38050936  0.83192323    -0.11900
C194        C  0.97810165  0.37440908  0.79574253     0.03600
C195        C  0.00351653  0.39003802  0.77051504    -0.12400
C196        C  0.03755144  0.41051825  0.78063203     0.18500
C197        C  0.04477412  0.41743683  0.81678578    -0.09500
C198        C  0.01855267  0.40278097  0.84216543    -0.02400
H199        H  0.99773560  0.38457392  0.74279447     0.05000
C200        C  0.06635665  0.42151796  0.75304223     0.20400
H201        H  0.02492833  0.40702550  0.86992952     0.10200
C202        C  0.07343874  0.46112150  0.74573403    -0.15800
C203        C  0.10043709  0.47191320  0.71947914     0.03100
C204        C  0.12021589  0.44286252  0.69994115    -0.11100
C205        C  0.11270595  0.40337956  0.70679781    -0.01100
C206        C  0.08622984  0.39252387  0.73325782    -0.06300
H207        H  0.05803006  0.48359635  0.76053920     0.06200
H208        H  0.12827353  0.38092388  0.69206758     0.09500
Br209      Br  0.09172490  0.44347675  0.83272579    -0.06000
Br210      Br  0.93514493  0.34278591  0.77908477    -0.02900
Br211      Br  0.10945159  0.52637694  0.71091209    -0.00100
Br212      Br  0.07979738  0.33775379  0.74252538    -0.04500
C213        C  0.09896179  0.63900545  0.45325493    -0.11900
C214        C  0.07236884  0.60811880  0.45971372     0.03600
C215        C  0.07923845  0.58259913  0.48754902    -0.12400
C216        C  0.11248771  0.58746986  0.50893046     0.18500
C217        C  0.13885877  0.61856368  0.50266064    -0.09500
C218        C  0.13185147  0.64414299  0.47508353    -0.02400
H219        H  0.05896373  0.55858384  0.49223333     0.05000
C220        C  0.12118582  0.55829554  0.53591801     0.20400
H221        H  0.15256079  0.66775973  0.47021953     0.10200
C222        C  0.15031143  0.53072410  0.52848277    -0.15800
C223        C  0.16287231  0.50525945  0.55439234     0.03100
C224        C  0.14556321  0.50668813  0.58829626    -0.11100
C225        C  0.11505314  0.53299971  0.59530381    -0.01100
C226        C  0.10300445  0.55909121  0.56936532    -0.06300
H227        H  0.16429087  0.52998669  0.50272991     0.06200
H228        H  0.10208135  0.53462112  0.62143417     0.09500
Br229      Br  0.18500985  0.62689518  0.53086761    -0.06000
Br230      Br  0.02587471  0.60034318  0.43206541    -0.02900
Br231      Br  0.20444196  0.46970651  0.54220676    -0.00100
Br232      Br  0.06402166  0.59724096  0.58136774    -0.04500
C233        C  0.16781511  0.65466819  0.35495366    -0.11900
C234        C  0.18812719  0.66930885  0.32519098     0.03600
C235        C  0.22264323  0.65121043  0.31347154    -0.12400
C236        C  0.23690332  0.61786379  0.33014643     0.18500
C237        C  0.21526239  0.60175943  0.35830549    -0.09500
C238        C  0.18119389  0.62025218  0.37056686    -0.02400
H239        H  0.23887981  0.66366971  0.29159907     0.05000
C240        C  0.27631076  0.60292886  0.32028446     0.20400
H241        H  0.16582034  0.60825454  0.39312292     0.10200
C242        C  0.30665181  0.60637036  0.34497258    -0.15800
C243        C  0.34523378  0.59590014  0.33643596     0.03100
C244        C  0.35426989  0.58111663  0.30215959    -0.11100
C245        C  0.32332357  0.57689597  0.27773686    -0.01100
C246        C  0.28483367  0.58799378  0.28638661    -0.06300
H247        H  0.30039651  0.61840123  0.37096567     0.06200
H248        H  0.32917414  0.56612459  0.25126532     0.09500
Br249      Br  0.23113700  0.55456470  0.38084526    -0.06000
Br250      Br  0.16961685  0.71268349  0.29833796    -0.02900
Br251      Br  0.38321288  0.60422636  0.37329600    -0.00100
Br252      Br  0.24504357  0.58264652  0.25089211    -0.04500
C253        C  0.77477526  0.58171480  0.16172116    -0.11900
C254        C  0.76350666  0.54906216  0.18257863     0.03600
C255        C  0.72468654  0.54508677  0.19503937    -0.12400
C256        C  0.69600383  0.57270518  0.18698601     0.18500
C257        C  0.70645423  0.60437640  0.16554906    -0.09500
C258        C  0.74505576  0.60861322  0.15314831    -0.02400
H259        H  0.71693528  0.52050192  0.21150103     0.05000
C260        C  0.65581880  0.56965061  0.20244390     0.20400
H261        H  0.75068373  0.63326411  0.13656763     0.10200
C262        C  0.64397268  0.59798758  0.22720287    -0.15800
C263        C  0.60546089  0.59872850  0.24035784     0.03100
C264        C  0.57764104  0.57022445  0.22905563    -0.11100
C265        C  0.58981518  0.54131968  0.20467590    -0.01100
C266        C  0.62854027  0.54075310  0.19152240    -0.06300
H267        H  0.66467849  0.62045334  0.23563129     0.06200
H268        H  0.56916828  0.51901915  0.19582455     0.09500
Br269      Br  0.66856143  0.64255299  0.15173410    -0.06000
Br270      Br  0.79936097  0.50845283  0.19540118    -0.02900
Br271      Br  0.59254023  0.64155210  0.27148327    -0.00100
Br272      Br  0.64245211  0.50093937  0.15775661    -0.04500
C273        C  0.10028657  0.19346746  0.53294349    -0.11900
C274        C  0.12191071  0.22093762  0.51316046     0.03600
C275        C  0.13218890  0.25695445  0.52845597    -0.12400
C276        C  0.12168559  0.26586114  0.56343666     0.18500
C277        C  0.09924741  0.23882451  0.58290740    -0.09500
C278        C  0.08897085  0.20281674  0.56765552    -0.02400
H279        H  0.14954526  0.27764488  0.51339904     0.05000
C280        C  0.13453066  0.30355180  0.57896203     0.20400
H281        H  0.07258613  0.18174515  0.58313905     0.10200
C282        C  0.11836921  0.33801690  0.56619056    -0.15800
C283        C  0.13034248  0.37452501  0.57936786     0.03100
C284        C  0.15892057  0.37694799  0.60639872    -0.11100
C285        C  0.17527805  0.34206630  0.61884001    -0.01100
C286        C  0.16376858  0.30568973  0.60503741    -0.06300
H287        H  0.09656842  0.33646167  0.54543858     0.06200
H288        H  0.19717502  0.34299085  0.63949569     0.09500
Br289      Br  0.08202584  0.24972929  0.63028206    -0.06000
Br290      Br  0.14183173  0.20924148  0.46675080    -0.02900
Br291      Br  0.10816811  0.41894740  0.55675797    -0.00100
Br292      Br  0.19013329  0.25995824  0.62136819    -0.04500
C293        C  0.08839142  0.97264071  0.45977387    -0.11900
C294        C  0.11220378  0.94369219  0.47529361     0.03600
C295        C  0.11100894  0.90535277  0.46234593    -0.12400
C296        C  0.08735562  0.89503647  0.43360335     0.18500
C297        C  0.06447573  0.92365952  0.41740342    -0.09500
C298        C  0.06498526  0.96208262  0.43057563    -0.02400
H299        H  0.12919173  0.88341053  0.47445165     0.05000
C300        C  0.08789348  0.85421988  0.42075243     0.20400
H301        H  0.04690662  0.98370132  0.41794282     0.10200
C302        C  0.05668879  0.82911248  0.42916702    -0.15800
C303        C  0.05815803  0.78926940  0.42046384     0.03100
C304        C  0.09153114  0.77361373  0.40258833    -0.11100
C305        C  0.12199006  0.79995739  0.39311737    -0.01100
C306        C  0.12059355  0.83948859  0.40248176    -0.06300
H307        H  0.03147831  0.84042579  0.44349395     0.06200
H308        H  0.14773198  0.79083626  0.37877216     0.09500
Br309      Br  0.03325908  0.91167234  0.37662560    -0.06000
Br310      Br  0.14914811  0.95395215  0.51264482    -0.02900
Br311      Br  0.01377062  0.75818886  0.43518832    -0.00100
Br312      Br  0.16455879  0.87235271  0.39023278    -0.04500
C313        C  0.78224015  0.09905724  0.59798260    -0.11900
C314        C  0.79627501  0.06128833  0.58825597     0.03600
C315        C  0.83561539  0.05612813  0.57833684    -0.12400
C316        C  0.86179887  0.08780026  0.57709605     0.18500
C317        C  0.84826759  0.12536506  0.58580921    -0.09500
C318        C  0.80924323  0.13067598  0.59644192    -0.02400
H319        H  0.84572411  0.02720920  0.57079722     0.05000
C320        C  0.90217578  0.08173002  0.56365730     0.20400
H321        H  0.80063686  0.16036201  0.60219182     0.10200
C322        C  0.90765036  0.07484330  0.52751771    -0.15800
C323        C  0.94541485  0.07178328  0.51304109     0.03100
C324        C  0.97880604  0.07557784  0.53508517    -0.11100
C325        C  0.97300900  0.08068569  0.57162230    -0.01100
C326        C  0.93511184  0.08385899  0.58593969    -0.06300
H327        H  0.88231211  0.07259255  0.51034378     0.06200
H328        H  0.99804980  0.08352352  0.58906216     0.09500
Br329      Br  0.88145453  0.17078012  0.58121328    -0.06000
Br330      Br  0.76343886  0.01518152  0.58635288    -0.02900
Br331      Br  0.94864764  0.06156221  0.46315134    -0.00100
Br332      Br  0.92966046  0.09155373  0.63592794    -0.04500
C333        C  0.66560362  0.05623466  0.67183209    -0.11900
C334        C  0.64595764  0.07206510  0.70152453     0.03600
C335        C  0.62883689  0.04716279  0.72634624    -0.12400
C336        C  0.63086735  0.00648130  0.72215511     0.18500
C337        C  0.64973737  0.99060204  0.69215837    -0.09500
C338        C  0.66707816  0.01547174  0.66739187    -0.02400
H339        H  0.61460883  0.05955587  0.74950080     0.05000
C340        C  0.61515682  0.98119922  0.75036032     0.20400
H341        H  0.68193043  0.00295725  0.64460573     0.10200
C342        C  0.57987451  0.96043788  0.74516822    -0.15800
C343        C  0.56551535  0.93484645  0.77088989     0.03100
C344        C  0.58683301  0.92949620  0.80237335    -0.11100
C345        C  0.62066811  0.95247916  0.80833407    -0.01100
C346        C  0.63515004  0.97772468  0.78254565    -0.06300
H347        H  0.56369025  0.96387999  0.72087193     0.06200
H348        H  0.63711970  0.94960932  0.83243984     0.09500
Br349      Br  0.65382490  0.93523558  0.68461886    -0.06000
Br350      Br  0.64393917  0.12706272  0.71125764    -0.05300
Br351      Br  0.51596312  0.90922999  0.76220105    -0.00100
Br352      Br  0.68383857  0.00485514  0.79148930    -0.04500
C353        C  0.48053214  0.25596629  0.33901247    -0.11900
C354        C  0.45280031  0.27483702  0.31710677     0.03600
C355        C  0.45585921  0.31498866  0.31084284    -0.12400
C356        C  0.48634608  0.33765280  0.32534295     0.18500
C357        C  0.51478110  0.31933374  0.34600883    -0.09500
C358        C  0.51191336  0.27910743  0.35256723    -0.02400
H359        H  0.43402627  0.32880531  0.29453434     0.05000
C360        C  0.48800596  0.38011851  0.31757423     0.20400
H361        H  0.53446412  0.26696292  0.36874128     0.10200
C362        C  0.47873213  0.40784729  0.34395299    -0.15800
C363        C  0.47560764  0.44779392  0.33602579     0.03100
C364        C  0.48158330  0.46045441  0.30101957    -0.11100
C365        C  0.49212765  0.43258354  0.27511720    -0.01100
C366        C  0.49550099  0.39298910  0.28311127    -0.06300
H367        H  0.47261608  0.39819561  0.37054484     0.06200
H368        H  0.49750004  0.44159198  0.24821018     0.09500
Br369      Br  0.55854695  0.34803030  0.36535770    -0.06000
Br370      Br  0.40888801  0.24839263  0.29520890    -0.02900
Br371      Br  0.45994699  0.48279886  0.37335869    -0.00100
Br372      Br  0.51045358  0.35738903  0.24597064    -0.04500
C373        C  0.52037777  0.13557995  0.41009540    -0.11900
C374        C  0.50445553  0.11883075  0.44107042     0.03600
C375        C  0.52955485  0.10634439  0.46775686    -0.12400
C376        C  0.57036511  0.11047840  0.46442296     0.18500
C377        C  0.58643884  0.12423070  0.43261401    -0.09500
C378        C  0.56150587  0.13653140  0.40577055    -0.02400
H379        H  0.51708463  0.09593389  0.49230687     0.05000
C380        C  0.59500188  0.10670064  0.49614128     0.20400
H381        H  0.57433901  0.14870918  0.38206300     0.10200
C382        C  0.60586828  0.06969950  0.50822253    -0.15800
C383        C  0.63017032  0.06632549  0.53783775     0.03100
C384        C  0.64330539  0.10023434  0.55576970    -0.11100
C385        C  0.63169103  0.13699660  0.54407134    -0.01100
C386        C  0.60752012  0.14044622  0.51470542    -0.06300
H387        H  0.59599814  0.04359219  0.49430284     0.06200
H388        H  0.64257063  0.16324522  0.55710339     0.09500
Br389      Br  0.64223561  0.12951624  0.42597713    -0.06000
Br390      Br  0.44929897  0.11657072  0.45142248    -0.02900
Br391      Br  0.64520882  0.01527428  0.55284513    -0.00100
Br392      Br  0.59265468  0.19199839  0.50069848    -0.04500
C393        C  0.38761977  0.15809772  0.39356485    -0.11900
C394        C  0.36892916  0.17956030  0.42093064     0.03600
C395        C  0.33242397  0.16699071  0.43391219    -0.12400
C396        C  0.31482103  0.13231914  0.42135033     0.18500
C397        C  0.33418098  0.11016462  0.39507326    -0.09500
C398        C  0.36983173  0.12344020  0.38108439    -0.02400
H399        H  0.31787541  0.18412758  0.45427339     0.05000
C400        C  0.27554999  0.12056490  0.43475969     0.20400
H401        H  0.38367155  0.10640770  0.36027316     0.10200
C402        C  0.24431117  0.11758429  0.41093772    -0.15800
C403        C  0.20663473  0.10664616  0.42204860     0.03100
C404        C  0.19916021  0.09965186  0.45828511    -0.11100
C405        C  0.23075434  0.10243960  0.48208953    -0.01100
C406        C  0.26865723  0.11263663  0.47062454    -0.06300
H407        H  0.24939267  0.12361429  0.38328390     0.06200
H408        H  0.22597857  0.09718164  0.50989792     0.09500
Br409      Br  0.31414084  0.06067294  0.37841297    -0.06000
Br410      Br  0.39288232  0.22393784  0.44413302    -0.02900
Br411      Br  0.16797832  0.10057477  0.38545018    -0.00100
Br412      Br  0.31016609  0.11427326  0.50477897    -0.04500
C413        C  0.39153168  0.92613050  0.05515625    -0.11900
C414        C  0.38710990  0.89786613  0.02787487     0.03600
C415        C  0.41539795  0.89476056  0.00115535    -0.12400
C416        C  0.44854380  0.91926859  0.00075283     0.18500
C417        C  0.45308826  0.94773993  0.02761376    -0.09500
C418        C  0.42480512  0.95082914  0.05469554    -0.02400
H419        H  0.41206236  0.87229084  0.98095390     0.05000
C420        C  0.47859602  0.91262446  0.97288406     0.20400
H421        H  0.42883551  0.97248875  0.07547284     0.10200
C422        C  0.47695257  0.93365685  0.94133810    -0.15800
C423        C  0.50105628  0.92358883  0.91246188     0.03100
C424        C  0.52712440  0.89195969  0.91495501    -0.11100
C425        C  0.52924118  0.87155881  0.94678039    -0.01100
C426        C  0.50549197  0.88175463  0.97561343    -0.06300
H427        H  0.45575077  0.95689613  0.93870710     0.06200
H428        H  0.54894742  0.84697929  0.94895394     0.09500
Br429      Br  0.49784163  0.98215941  0.02858564    -0.06000
Br430      Br  0.34582854  0.85942435  0.02746175    -0.02900
Br431      Br  0.49458825  0.95115587  0.86919136    -0.00100
Br432      Br  0.50963791  0.85170253  0.01780354    -0.04500
C433        C  0.37619471  0.98094629  0.17246645    -0.11900
C434        C  0.36260206  0.98000295  0.20775676     0.03600
C435        C  0.37855742  0.00565080  0.23303662    -0.12400
C436        C  0.40791101  0.03266369  0.22382468     0.18500
C437        C  0.42234704  0.03292334  0.18890278    -0.09500
C438        C  0.40666614  0.00695834  0.16355182    -0.02400
H439        H  0.36739126  0.00513982  0.25984600     0.05000
C440        C  0.42178494  0.06149370  0.25059848     0.20400
H441        H  0.41713730  0.00820077  0.13655706     0.10200
C442        C  0.45225050  0.05169279  0.27364129    -0.15800
C443        C  0.46605238  0.07870640  0.29898875     0.03100
C444        C  0.44995769  0.11655275  0.30087651    -0.11100
C445        C  0.41886865  0.12588383  0.27826543    -0.01100
C446        C  0.40439261  0.09857228  0.25368755    -0.06300
H447        H  0.46529289  0.02294013  0.27189183     0.06200
H448        H  0.40515493  0.15430237  0.28030088     0.09500
Br449      Br  0.46229468  0.06939879  0.17458700    -0.06000
Br450      Br  0.32208780  0.94438267  0.22289978    -0.02900
Br451      Br  0.50749889  0.06283854  0.32966453    -0.00100
Br452      Br  0.35993095  0.11259062  0.22569065    -0.04500
C453        C  0.36596137  0.85259397  0.15322088    -0.11900
C454        C  0.39894280  0.83235803  0.13939615     0.03600
C455        C  0.41340021  0.79945528  0.15656606    -0.12400
C456        C  0.39594755  0.78589185  0.18763076     0.18500
C457        C  0.36345555  0.80600637  0.20181901    -0.09500
C458        C  0.34866543  0.83887844  0.18461148    -0.02400
H459        H  0.43799661  0.78371554  0.14513985     0.05000
C460        C  0.41022761  0.74888432  0.20293141     0.20400
H461        H  0.32360562  0.85390032  0.19595466     0.10200
C462        C  0.44020640  0.74942367  0.22832161    -0.15800
C463        C  0.45534557  0.71442135  0.24173650     0.03100
C464        C  0.44063871  0.67792681  0.22933649    -0.11100
C465        C  0.41055668  0.67794938  0.20385242    -0.01100
C466        C  0.39542392  0.71272636  0.19080965    -0.06300
H467        H  0.45209739  0.77719671  0.23750677     0.06200
H468        H  0.39812245  0.65062015  0.19416471     0.09500
Br469      Br  0.33817195  0.78910931  0.24434189    -0.06000
Br470      Br  0.42444284  0.84543313  0.09599058    -0.02900
Br471      Br  0.49700077  0.71871398  0.27555381    -0.00100
Br472      Br  0.35432273  0.70939982  0.15633401    -0.04500
C473        C  0.68477214  0.45031504  0.77432620    -0.11900
C474        C  0.71999225  0.47063420  0.76645946     0.03600
C475        C  0.75594615  0.45655054  0.77905426    -0.12400
C476        C  0.75717515  0.42215487  0.79887629     0.18500
C477        C  0.72209582  0.40184871  0.80632757    -0.09500
C478        C  0.68649706  0.41592741  0.79411391    -0.02400
H479        H  0.78290651  0.47255335  0.77365226     0.05000
C480        C  0.79454170  0.40834658  0.81359651     0.20400
H481        H  0.65985170  0.39962263  0.80008943     0.10200
C482        C  0.80831727  0.42537569  0.84494905    -0.15800
C483        C  0.83969934  0.40900561  0.86317473     0.03100
C484        C  0.85782212  0.37466287  0.85008470    -0.11100
C485        C  0.84387419  0.35792659  0.81839619    -0.01100
C486        C  0.81308130  0.37488253  0.79985377    -0.06300
H487        H  0.79344822  0.45061302  0.85607551     0.06200
H488        H  0.85698596  0.33151676  0.80786799     0.09500
Br489      Br  0.72107227  0.35522601  0.83406430    -0.06000
Br490      Br  0.72047053  0.51855065  0.74069760    -0.02900
Br491      Br  0.85288113  0.43297533  0.90741869    -0.00100
Br492      Br  0.79674721  0.35122778  0.75610855    -0.04500
C493        C  0.58260818  0.36256175  0.70477725    -0.11900
C494        C  0.58604924  0.35374977  0.66833724     0.03600
C495        C  0.59991089  0.31726455  0.65732100    -0.12400
C496        C  0.60898254  0.28842041  0.68180822     0.18500
C497        C  0.60211603  0.29578291  0.71793199    -0.09500
C498        C  0.58931207  0.33270141  0.72917112    -0.02400
H499        H  0.60435101  0.31159468  0.62940815     0.05000
C500        C  0.62790108  0.25204890  0.66910422     0.20400
H501        H  0.58616895  0.33845627  0.75719750     0.10200
C502        C  0.66623887  0.24378257  0.68005565    -0.15800
C503        C  0.68593857  0.21063960  0.66752833     0.03100
C504        C  0.66769913  0.18569500  0.64221689    -0.11100
C505        C  0.62909506  0.19407001  0.63162209    -0.01100
C506        C  0.60914081  0.22661991  0.64498164    -0.06300
H507        H  0.68076215  0.26304485  0.69890528     0.06200
H508        H  0.61392737  0.17506427  0.61308700     0.09500
Br509      Br  0.60974706  0.25633183  0.75275353    -0.06000
Br510      Br  0.57159371  0.38951012  0.63199894    -0.02900
Br511      Br  0.73541937  0.19948922  0.68945231    -0.00100
Br512      Br  0.55561401  0.23404304  0.63080569    -0.04500
C513        C  0.57397047  0.58396673  0.77844401    -0.11900
C514        C  0.54392308  0.59802682  0.80101051     0.03600
C515        C  0.54353686  0.63751759  0.81109708    -0.12400
C516        C  0.57271240  0.66347304  0.79922123     0.18500
C517        C  0.60339754  0.64928656  0.77765029    -0.09500
C518        C  0.60350729  0.60999115  0.76705561    -0.02400
H519        H  0.52000313  0.64820952  0.82791273     0.05000
C520        C  0.57089317  0.70506978  0.81011901     0.20400
H521        H  0.62713439  0.59959880  0.75018847     0.10200
C522        C  0.57638967  0.71514386  0.84560456    -0.15800
C523        C  0.57625774  0.75423885  0.85684861     0.03100
C524        C  0.57111743  0.78470252  0.83211587    -0.11100
C525        C  0.56295568  0.77377998  0.79680264    -0.01100
C526        C  0.56288608  0.73460046  0.78582808    -0.06300
H527        H  0.58131404  0.69237602  0.86466939     0.06200
H528        H  0.55620464  0.79501616  0.77709896     0.09500
Br529      Br  0.64659015  0.68203466  0.76322165    -0.06000
Br530      Br  0.50121249  0.56567086  0.81716215    -0.02900
Br531      Br  0.58354356  0.76330420  0.90660398    -0.00100
Br532      Br  0.55053646  0.72278078  0.73745177    -0.04500
C533        C  0.26041546  0.46656864  0.66385269    -0.11900
C534        C  0.28029207  0.43733124  0.68303722     0.03600
C535        C  0.31997584  0.44232434  0.69171986    -0.12400
C536        C  0.34044119  0.47660012  0.68304827     0.18500
C537        C  0.32056919  0.50667215  0.66603436    -0.09500
C538        C  0.28113763  0.50169443  0.65684499    -0.02400
H539        H  0.33498745  0.41936679  0.70562894     0.05000
C540        C  0.38235406  0.48062975  0.69253966     0.20400
H541        H  0.26718456  0.52645286  0.64512945     0.10200
C542        C  0.41102695  0.48122396  0.66581221    -0.15800
C543        C  0.45118559  0.48252159  0.67396981     0.03100
C544        C  0.46313286  0.48308151  0.70968795    -0.11100
C545        C  0.43397519  0.48379589  0.73623470    -0.01100
C546        C  0.39406057  0.48254826  0.72797158    -0.06300
H547        H  0.40206891  0.47976252  0.63843212     0.06200
H548        H  0.44216561  0.48489344  0.76381059     0.09500
Br549      Br  0.34557436  0.55591989  0.65618972    -0.06000
Br550      Br  0.25532392  0.39013072  0.69933732    -0.02900
Br551      Br  0.48740814  0.48106848  0.63496325    -0.00100
Br552      Br  0.35660865  0.48388470  0.76604630    -0.04500
C553        C  0.93817586  0.84239515  0.02110937    -0.11900
C554        C  0.89917566  0.82821795  0.02273754     0.03600
C555        C  0.89115833  0.79187796  0.03760397    -0.12400
C556        C  0.92141239  0.76935464  0.05160081     0.18500
C557        C  0.96059888  0.78295004  0.04926488    -0.09500
C558        C  0.96878117  0.81926166  0.03384304    -0.02400
H559        H  0.86097915  0.78151026  0.03908034     0.05000
C560        C  0.91064913  0.73263027  0.06959811     0.20400
H561        H  0.99878618  0.83020008  0.03321840     0.10200
C562        C  0.91686556  0.69660759  0.05252995    -0.15800
C563        C  0.90290160  0.66171699  0.06727621     0.03100
C564        C  0.88206441  0.66264078  0.09957276    -0.11100
C565        C  0.87631063  0.69882595  0.11670342    -0.01100
C566        C  0.89065714  0.73350975  0.10217924    -0.06300
H567        H  0.93166628  0.69577846  0.02715878     0.06200
H568        H  0.86101423  0.70003066  0.14183366     0.09500
Br569      Br  0.00322205  0.75419964  0.06892888    -0.06000
Br570      Br  0.85561894  0.85760727  0.00548591    -0.02900
Br571      Br  0.91058526  0.61450573  0.04066869    -0.00100
Br572      Br  0.88267856  0.78144809  0.12795398    -0.04500
C573        C  0.65976839  0.88843515  0.88314964    -0.11900
C574        C  0.66947310  0.89545218  0.91864490     0.03600
C575        C  0.70727958  0.90877001  0.92732809    -0.12400
C576        C  0.73555324  0.91572992  0.90092470     0.18500
C577        C  0.72550560  0.90926173  0.86534000    -0.09500
C578        C  0.68801042  0.89518795  0.85678046    -0.02400
H579        H  0.71493121  0.91301355  0.95483120     0.05000
C580        C  0.77608354  0.92658935  0.91140665     0.20400
H581        H  0.68067310  0.88980530  0.82934849     0.10200
C582        C  0.80649940  0.90002073  0.90484225    -0.15800
C583        C  0.84436171  0.90697568  0.91780747     0.03100
C584        C  0.85191626  0.94053240  0.93893322    -0.11100
C585        C  0.82178285  0.96786140  0.94430139    -0.01100
C586        C  0.78427916  0.96143698  0.93018149    -0.06300
H587        H  0.80045167  0.87314211  0.89035012     0.06200
H588        H  0.82741897  0.99427897  0.95959370     0.09500
Br589      Br  0.76150370  0.92029836  0.82755674    -0.06000
Br590      Br  0.63284925  0.88537424  0.95606250    -0.02900
Br591      Br  0.88328226  0.86787706  0.90783247    -0.00100
Br592      Br  0.74540631  0.00131743  0.93631548    -0.04500
C593        C  0.05835393  0.95998146  0.04121173    -0.11900
C594        C  0.06332225  0.94539832  0.07561275     0.03600
C595        C  0.10112652  0.94357637  0.09021648    -0.12400
C596        C  0.13424718  0.95600705  0.07105318     0.18500
C597        C  0.12918674  0.97160144  0.03724494    -0.09500
C598        C  0.09157260  0.97343220  0.02261790    -0.02400
H599        H  0.10488517  0.93105609  0.11607631     0.05000
C600        C  0.17418603  0.94916794  0.08498625     0.20400
H601        H  0.08836542  0.98471143  0.99621590     0.10200
C602        C  0.19338049  0.91456386  0.07571463    -0.15800
C603        C  0.23243625  0.90803374  0.08553093     0.03100
C604        C  0.25377564  0.93665089  0.10541218    -0.11100
C605        C  0.23342373  0.97136573  0.11486419    -0.01100
C606        C  0.19423781  0.97745245  0.10517514    -0.06300
H607        H  0.17800219  0.89269538  0.05993939     0.06200
H608        H  0.24758823  0.99531912  0.12858001     0.09500
Br609      Br  0.17312261  0.98920437  0.00953049    -0.06000
Br610      Br  0.02048417  0.92362246  0.10231678    -0.02900
Br611      Br  0.25407336  0.85937106  0.06951942    -0.00100
Br612      Br  0.16953775  0.02557437  0.11894887    -0.04500
C613        C  0.94107096  0.25939357  0.89428942    -0.11900
C614        C  0.97642430  0.24650092  0.91026700     0.03600
C615        C  0.98075452  0.20734872  0.91953765    -0.12400
C616        C  0.95121494  0.17975770  0.91236516     0.18500
C617        C  0.91731665  0.19152422  0.89433733    -0.09500
C618        C  0.91239547  0.23080770  0.88557873    -0.02400
H619        H  0.00704524  0.19853684  0.93328939     0.05000
C620        C  0.95458493  0.13985216  0.92675723     0.20400
H621        H  0.88567964  0.23816677  0.87219602     0.10200
C622        C  0.92740097  0.12802241  0.95241768    -0.15800
C623        C  0.92877016  0.09073627  0.96688377     0.03100
C624        C  0.95847412  0.06425053  0.95601997    -0.11100
C625        C  0.98614401  0.07646818  0.93062576    -0.01100
C626        C  0.98452725  0.11395569  0.91615625    -0.06300
H627        H  0.90450497  0.14792614  0.96096140     0.06200
H628        H  0.00905917  0.05674592  0.92183966     0.09500
Br629      Br  0.87691879  0.15477808  0.88080449    -0.06000
Br630      Br  0.02013801  0.28057349  0.92137041    -0.02900
Br631      Br  0.88710371  0.07788229  0.99937067    -0.00100
Br632      Br  0.02289439  0.12791832  0.88113465    -0.04500
loop_ 
_geom_bond_atom_site_label_1 
_geom_bond_atom_site_label_2 
_geom_bond_distance 
_geom_bond_site_symmetry_2 
_ccdc_geom_bond_type 
O1           Ni9   1.932       .  S
O1           C11   1.283   1_556  A
O2           Ni9   1.929       .  S
O2           C12   1.284   1_565  A
O3           Ni9   1.913   1_455  S
O3           C13   1.280   1_556  A
O4           Ni9   1.911       .  S
O4           C14   1.279       .  A
O5          Ni10   1.922   1_556  S
O5           C14   1.283       .  A
O6          Ni10   1.927       .  S
O6           C13   1.283   1_655  A
O7          Ni10   1.906   1_546  S
O7           C12   1.278       .  A
O8          Ni10   1.907       .  S
O8           C11   1.278       .  A
Ni9         Ni10   2.387   1_556  S
C11         C553   1.471       .  S
C12         C624   1.486       .  S
C13         C593   1.482       .  S
C14         C584   1.477       .  S
O15         Ni23   1.924       .  S
O15          C25   1.283       .  A
O16         Ni23   1.922       .  S
O16          C26   1.282       .  A
O17         Ni23   1.899       .  S
O17          C27   1.278       .  A
O18         Ni23   1.897       .  S
O18          C28   1.278       .  A
O19         Ni24   1.929       .  S
O19          C28   1.283       .  A
O20         Ni24   1.930       .  S
O20          C27   1.283       .  A
O21         Ni24   1.910       .  S
O21          C26   1.280       .  A
O22         Ni24   1.906       .  S
O22          C25   1.279       .  A
Ni23        Ni24   2.385       .  S
C25         C493   1.482       .  S
C26         C513   1.479       .  S
C27         C544   1.485       .  S
C28         C473   1.476       .  S
C29          C30   1.538       .  S
C29          C35   1.543       .  S
C29          C33   1.550       .  S
C29         C604   1.550       .  S
C30          H37   1.086       .  S
C30          C31   1.366       .  D
C31          C32   1.545       .  S
C31         C413   1.491       .  S
C32          C36   1.540       .  S
C32          C34   1.543       .  S
C32          H38   1.110       .  S
C33          H39   1.085       .  S
C33          C34   1.375       .  D
C34         C453   1.499       .  S
C35          H40   1.082       .  S
C35          C36   1.361       .  D
C36         C433   1.485       .  S
C41          C42   1.541       .  S
C41          C47   1.547       .  S
C41          C45   1.537       .  S
C41         C353   1.545       .  S
C42          H49   1.086       .  S
C42          C43   1.369       .  D
C43          C44   1.538       .  S
C43         C444   1.487       .  S
C44          C48   1.537       .  S
C44          C46   1.538       .  S
C44          H50   1.109       .  S
C45          H51   1.085       .  S
C45          C46   1.363       .  D
C46         C393   1.484       .  S
C47          H52   1.080       .  S
C47          C48   1.368       .  D
C48         C373   1.491       .  S
C53          C54   1.547       .  S
C53          C59   1.533       .  S
C53          C57   1.537       .  S
C53         C524   1.537       .  S
C54          H61   1.080       .  S
C54          C55   1.369       .  D
C55          C56   1.543       .  S
C55         C344   1.491       .  S
C56          C60   1.542       .  S
C56          C58   1.537       .  S
C56          H62   1.111       .  S
C57          H63   1.087       .  S
C57          C58   1.361       .  D
C58         C573   1.474       .  S
C59          H64   1.086       .  S
C59          C60   1.364       .  D
C60         C424   1.484       .  S
C65          C66   1.533       .  S
C65          C71   1.540       .  S
C65          C69   1.552       .  S
C65         C313   1.538       .  S
C66          H73   1.087       .  S
C66          C67   1.360       .  D
C67          C68   1.538       .  S
C67         C384   1.473       .  S
C68          C72   1.534       .  S
C68          C70   1.538       .  S
C68          H74   1.110       .  S
C69          H75   1.080       .  S
C69          C70   1.368       .  D
C70         C504   1.491       .  S
C71          H76   1.086       .  S
C71          C72   1.365       .  D
C72         C333   1.481       .  S
O77         Ni85   1.922       .  S
O77          C87   1.282       .  A
O78         Ni85   1.926       .  S
O78          C88   1.284       .  A
O79         Ni85   1.908       .  S
O79          C89   1.278       .  A
O80         Ni85   1.902       .  S
O80          C90   1.277       .  A
O81         Ni86   1.929       .  S
O81          C90   1.285       .  A
O82         Ni86   1.925       .  S
O82          C89   1.284       .  A
O83         Ni86   1.902       .  S
O83          C88   1.277       .  A
O84         Ni86   1.900       .  S
O84          C87   1.277       .  A
Ni85        Ni86   2.385       .  S
C87         C273   1.467       .  S
C88         C293   1.484   1_545  S
C89         C324   1.484   1_455  S
C90         C404   1.487       .  S
O91         Ni99   1.931       .  S
O91         C101   1.285       .  A
O92         Ni99   1.933       .  S
O92         C102   1.285       .  A
O93         Ni99   1.908       .  S
O93         C103   1.279       .  A
O94         Ni99   1.907       .  S
O94         C104   1.280       .  A
O95        Ni100   1.941       .  S
O95         C104   1.286       .  A
O96        Ni100   1.940       .  S
O96         C103   1.285       .  A
O97        Ni100   1.912       .  S
O97         C102   1.279       .  A
O98        Ni100   1.906       .  S
O98         C101   1.277       .  A
Ni99       Ni100   2.381       .  S
C101        C244   1.493       .  S
C102        C264   1.489       .  S
C103        C364   1.489       .  S
C104        C464   1.495       .  S
C105        C106   1.534       .  S
C105        C111   1.539       .  S
C105        C109   1.544       .  S
C105        C533   1.534       .  S
C106        H113   1.086       .  S
C106        C107   1.362       .  D
C107        C108   1.535       .  S
C107        C204   1.472       .  S
C108        C112   1.537       .  S
C108        C110   1.538       .  S
C108        H114   1.109       .  S
C109        H115   1.086       .  S
C109        C110   1.371       .  D
C110        C284   1.490       .  S
C111        H116   1.082       .  S
C111        C112   1.360       .  D
C112        C224   1.472       .  S
C117        C118   1.534       .  S
C117        C123   1.531       .  S
C117        C121   1.555       .  S
C117        C613   1.536       .  S
C118        H125   1.087       .  S
C118        C119   1.361       .  D
C119        C120   1.543       .  S
C119        C173   1.486       .  S
C120        C124   1.538       .  S
C120        C122   1.538       .  S
C120        H126   1.110       .  S
C121        H127   1.081       .  S
C121        C122   1.373       .  D
C122        C484   1.491       .  S
C123        H128   1.087       .  S
C123        C124   1.361       .  D
C124        C193   1.476       .  S
C129        C130   1.533       .  S
C129        C135   1.540       .  S
C129        C133   1.551       .  S
C129        C304   1.537       .  S
C130        H137   1.087       .  S
C130        C131   1.362       .  D
C131        C132   1.537       .  S
C131        C213   1.474       .  S
C132        C136   1.533       .  S
C132        C134   1.534       .  S
C132        H138   1.111       .  S
C133        H139   1.079       .  S
C133        C134   1.365       .  D
C134        C233   1.487       .  S
C135        H140   1.086       .  S
C135        C136   1.367       .  D
C136        C164   1.479       .  S
C141        C142   1.537       .  S
C141        C147   1.533       .  S
C141        C145   1.550       .  S
C141        C253   1.546       .  S
C142        H149   1.086       .  S
C142        C143   1.370       .  D
C143        C144   1.546       .  S
C143        C153   1.497       .  S
C144        C148   1.541       .  S
C144        C146   1.541       .  S
C144        H150   1.109       .  S
C145        H151   1.080       .  S
C145        C146   1.367       .  D
C146        C564   1.487       .  S
C147        H152   1.087       .  S
C147        C148   1.364       .  D
C148        C184   1.483       .  S
C153        C154   1.417       .  A
C153        C158   1.410       .  A
C154        C155   1.398       .  A
C154       Br170   1.913       .  S
C155        C156   1.399       .  A
C155        H159   1.084       .  S
C156        C160   1.481       .  S
C156        C157   1.406       .  A
C157        C158   1.401       .  A
C157       Br169   1.918       .  S
C158        H161   1.083       .  S
C160        C162   1.405       .  A
C160        C166   1.409   1_655  A
C162        C163   1.400       .  A
C162        H167   1.083       .  S
C163        C164   1.408   1_655  A
C163       Br171   1.917       .  S
C164        C165   1.403       .  A
C165        C166   1.398       .  A
C165        H168   1.084       .  S
C166       Br172   1.918       .  S
C173        C174   1.415       .  A
C173        C178   1.404       .  A
C174        C175   1.397   1_556  A
C174       Br190   1.923       .  S
C175        C176   1.400       .  A
C175        H179   1.084       .  S
C176        C180   1.480       .  S
C176        C177   1.408   1_554  A
C177        C178   1.404       .  A
C177       Br189   1.916       .  S
C178        H181   1.083       .  S
C180        C182   1.405       .  A
C180        C186   1.406       .  A
C182        C183   1.406       .  A
C182        H187   1.083       .  S
C183        C184   1.410       .  A
C183       Br191   1.917       .  S
C184        C185   1.402       .  A
C185        C186   1.394       .  A
C185        H188   1.084       .  S
C186       Br192   1.916   1_554  S
C193        C194   1.409       .  A
C193        C198   1.401   1_655  A
C194        C195   1.394   1_655  A
C194       Br210   1.914       .  S
C195        C196   1.400       .  A
C195        H199   1.084   1_455  S
C196        C200   1.479       .  S
C196        C197   1.410       .  A
C197        C198   1.403       .  A
C197       Br209   1.917       .  S
C198        H201   1.084       .  S
C200        C202   1.404       .  A
C200        C206   1.411       .  A
C202        C203   1.401       .  A
C202        H207   1.083       .  S
C203        C204   1.406       .  A
C203       Br211   1.917       .  S
C204        C205   1.399       .  A
C205        C206   1.396       .  A
C205        H208   1.084       .  S
C206       Br212   1.921       .  S
C213        C214   1.407       .  A
C213        C218   1.403       .  A
C214        C215   1.400       .  A
C214       Br230   1.915       .  S
C215        C216   1.401       .  A
C215        H219   1.083       .  S
C216        C220   1.471       .  S
C216        C217   1.407       .  A
C217        C218   1.394       .  A
C217       Br229   1.920       .  S
C218        H221   1.084       .  S
C220        C222   1.398       .  A
C220        C226   1.408       .  A
C222        C223   1.392       .  A
C222        H227   1.084       .  S
C223        C224   1.411       .  A
C223       Br231   1.923       .  S
C224        C225   1.401       .  A
C225        C226   1.401       .  A
C225        H228   1.083       .  S
C226       Br232   1.917       .  S
C233        C234   1.415       .  A
C233        C238   1.404       .  A
C234        C235   1.399       .  A
C234       Br250   1.922       .  S
C235        C236   1.402       .  A
C235        H239   1.084       .  S
C236        C240   1.482       .  S
C236        C237   1.409       .  A
C237        C238   1.399       .  A
C237       Br249   1.919       .  S
C238        H241   1.083       .  S
C240        C242   1.399       .  A
C240        C246   1.407       .  A
C242        C243   1.398       .  A
C242        H247   1.084       .  S
C243        C244   1.422       .  A
C243       Br251   1.924       .  S
C244        C245   1.410       .  A
C245        C246   1.401       .  A
C245        H248   1.083       .  S
C246       Br252   1.919       .  S
C253        C254   1.425       .  A
C253        C258   1.414       .  A
C254        C255   1.405       .  A
C254       Br270   1.924       .  S
C255        C256   1.401       .  A
C255        H259   1.083       .  S
C256        C260   1.487       .  S
C256        C257   1.404       .  A
C257        C258   1.398       .  A
C257       Br269   1.921       .  S
C258        H261   1.073       .  S
C260        C262   1.401       .  A
C260        C266   1.409       .  A
C262        C263   1.399       .  A
C262        H267   1.084       .  S
C263        C264   1.416       .  A
C263       Br271   1.922       .  S
C264        C265   1.408       .  A
C265        C266   1.405       .  A
C265        H268   1.083       .  S
C266       Br272   1.918       .  S
C273        C274   1.409       .  A
C273        C278   1.403       .  A
C274        C275   1.397       .  A
C274       Br290   1.921       .  S
C275        C276   1.402       .  A
C275        H279   1.084       .  S
C276        C280   1.474       .  S
C276        C277   1.407       .  A
C277        C278   1.396       .  A
C277       Br289   1.920       .  S
C278        H281   1.084       .  S
C280        C282   1.398       .  A
C280        C286   1.406       .  A
C282        C283   1.397       .  A
C282        H287   1.084       .  S
C283        C284   1.417       .  A
C283       Br291   1.916       .  S
C284        C285   1.408       .  A
C285        C286   1.397       .  A
C285        H288   1.083       .  S
C286       Br292   1.920       .  S
C293        C294   1.419       .  A
C293        C298   1.408       .  A
C294        C295   1.395       .  A
C294       Br310   1.924       .  S
C295        C296   1.397       .  A
C295        H299   1.084       .  S
C296        C300   1.473       .  S
C296        C297   1.405       .  A
C297        C298   1.400       .  A
C297       Br309   1.917       .  S
C298        H301   1.083       .  S
C300        C302   1.397       .  A
C300        C306   1.401       .  A
C302        C303   1.399       .  A
C302        H307   1.084       .  S
C303        C304   1.423       .  A
C303       Br311   1.923       .  S
C304        C305   1.414       .  A
C305        C306   1.395       .  A
C305        H308   1.074       .  S
C306       Br312   1.921       .  S
C313        C314   1.424       .  A
C313        C318   1.414       .  A
C314        C315   1.399       .  A
C314       Br330   1.925       .  S
C315        C316   1.397       .  A
C315        H319   1.084       .  S
C316        C320   1.477       .  S
C316        C317   1.403       .  A
C317        C318   1.397       .  A
C317       Br329   1.921       .  S
C318        H321   1.078       .  S
C320        C322   1.399       .  A
C320        C326   1.407       .  A
C322        C323   1.398       .  A
C322        H327   1.084       .  S
C323        C324   1.417       .  A
C323       Br331   1.922       .  S
C324        C325   1.407       .  A
C325        C326   1.400       .  A
C325        H328   1.083       .  S
C326       Br332   1.918       .  S
C333        C334   1.411       .  A
C333        C338   1.403       .  A
C334        C335   1.398       .  A
C334       Br350   1.914       .  S
C335        C336   1.401       .  A
C335        H339   1.084       .  S
C336        C340   1.478   1_545  S
C336        C337   1.408   1_545  A
C337        C338   1.399   1_565  A
C337       Br349   1.918       .  S
C338        H341   1.084       .  S
C340        C342   1.402       .  A
C340        C346   1.406       .  A
C342        C343   1.402       .  A
C342        H347   1.083       .  S
C343        C344   1.414       .  A
C343       Br351   1.920       .  S
C344        C345   1.405       .  A
C345        C346   1.397       .  A
C345        H348   1.080       .  S
C346       Br352   1.920   1_565  S
C353        C354   1.423       .  A
C353        C358   1.417       .  A
C354        C355   1.399       .  A
C354       Br370   1.925       .  S
C355        C356   1.399       .  A
C355        H359   1.084       .  S
C356        C360   1.486       .  S
C356        C357   1.404       .  A
C357        C358   1.404       .  A
C357       Br369   1.919       .  S
C358        H361   1.073       .  S
C360        C362   1.406       .  A
C360        C366   1.405       .  A
C362        C363   1.408       .  A
C362        H367   1.083       .  S
C363        C364   1.414       .  A
C363       Br371   1.919       .  S
C364        C365   1.407       .  A
C365        C366   1.397       .  A
C365        H368   1.084       .  S
C366       Br372   1.920       .  S
C373        C374   1.416       .  A
C373        C378   1.407       .  A
C374        C375   1.400       .  A
C374       Br390   1.914       .  S
C375        C376   1.398       .  A
C375        H379   1.084       .  S
C376        C380   1.476       .  S
C376        C377   1.406       .  A
C377        C378   1.399       .  A
C377       Br389   1.919       .  S
C378        H381   1.084       .  S
C380        C382   1.404       .  A
C380        C386   1.408       .  A
C382        C383   1.404       .  A
C382        H387   1.083       .  S
C383        C384   1.407       .  A
C383       Br391   1.917       .  S
C384        C385   1.399       .  A
C385        C386   1.394       .  A
C385        H388   1.083       .  S
C386       Br392   1.920       .  S
C393        C394   1.415       .  A
C393        C398   1.404       .  A
C394        C395   1.399       .  A
C394       Br410   1.922       .  S
C395        C396   1.403       .  A
C395        H399   1.083       .  S
C396        C400   1.480       .  S
C396        C397   1.408       .  A
C397        C398   1.395       .  A
C397       Br409   1.920       .  S
C398        H401   1.083       .  S
C400        C402   1.399       .  A
C400        C406   1.408       .  A
C402        C403   1.395       .  A
C402        H407   1.084       .  S
C403        C404   1.419       .  A
C403       Br411   1.924       .  S
C404        C405   1.408       .  A
C405        C406   1.400       .  A
C405        H408   1.083       .  S
C406       Br412   1.920       .  S
C413        C414   1.415       .  A
C413        C418   1.406       .  A
C414        C415   1.397       .  A
C414       Br430   1.914       .  S
C415        C416   1.398       .  A
C415        H419   1.084   1_554  S
C416        C420   1.483   1_554  S
C416        C417   1.408       .  A
C417        C418   1.407       .  A
C417       Br429   1.916       .  S
C418        H421   1.083       .  S
C420        C422   1.405       .  A
C420        C426   1.408       .  A
C422        C423   1.405       .  A
C422        H427   1.083       .  S
C423        C424   1.409       .  A
C423       Br431   1.917       .  S
C424        C425   1.404       .  A
C425        C426   1.398       .  A
C425        H428   1.083       .  S
C426       Br432   1.919   1_556  S
C433        C434   1.414       .  A
C433        C438   1.402   1_565  A
C434        C435   1.399   1_565  A
C434       Br450   1.921       .  S
C435        C436   1.400       .  A
C435        H439   1.084       .  S
C436        C440   1.482       .  S
C436        C437   1.410       .  A
C437        C438   1.404       .  A
C437       Br449   1.917       .  S
C438        H441   1.083       .  S
C440        C442   1.403       .  A
C440        C446   1.407       .  A
C442        C443   1.404       .  A
C442        H447   1.083       .  S
C443        C444   1.410       .  A
C443       Br451   1.917       .  S
C444        C445   1.405       .  A
C445        C446   1.399       .  A
C445        H448   1.083       .  S
C446       Br452   1.919       .  S
C453        C454   1.417       .  A
C453        C458   1.409       .  A
C454        C455   1.401       .  A
C454       Br470   1.912       .  S
C455        C456   1.399       .  A
C455        H459   1.084       .  S
C456        C460   1.485       .  S
C456        C457   1.407       .  A
C457        C458   1.405       .  A
C457       Br469   1.916       .  S
C458        H461   1.083       .  S
C460        C462   1.405       .  A
C460        C466   1.404       .  A
C462        C463   1.409       .  A
C462        H467   1.083       .  S
C463        C464   1.416       .  A
C463       Br471   1.918       .  S
C464        C465   1.410       .  A
C465        C466   1.397       .  A
C465        H468   1.083       .  S
C466       Br472   1.919       .  S
C473        C474   1.411       .  A
C473        C478   1.405       .  A
C474        C475   1.405       .  A
C474       Br490   1.918       .  S
C475        C476   1.405       .  A
C475        H479   1.083       .  S
C476        C480   1.473       .  S
C476        C477   1.404       .  A
C477        C478   1.390       .  A
C477       Br489   1.921       .  S
C478        H481   1.084       .  S
C480        C482   1.398       .  A
C480        C486   1.405       .  A
C482        C483   1.398       .  A
C482        H487   1.084       .  S
C483        C484   1.414       .  A
C483       Br491   1.911       .  S
C484        C485   1.407       .  A
C485        C486   1.398       .  A
C485        H488   1.082       .  S
C486       Br492   1.919       .  S
C493        C494   1.415       .  A
C493        C498   1.407       .  A
C494        C495   1.396       .  A
C494       Br510   1.922       .  S
C495        C496   1.400       .  A
C495        H499   1.084       .  S
C496        C500   1.479       .  S
C496        C497   1.408       .  A
C497        C498   1.400       .  A
C497       Br509   1.920       .  S
C498        H501   1.083       .  S
C500        C502   1.402       .  A
C500        C506   1.406       .  A
C502        C503   1.398       .  A
C502        H507   1.084       .  S
C503        C504   1.418       .  A
C503       Br511   1.923       .  S
C504        C505   1.407       .  A
C505        C506   1.397       .  A
C505        H508   1.081       .  S
C506       Br512   1.919       .  S
C513        C514   1.413       .  A
C513        C518   1.406       .  A
C514        C515   1.399       .  A
C514       Br530   1.920       .  S
C515        C516   1.402       .  A
C515        H519   1.084       .  S
C516        C520   1.478       .  S
C516        C517   1.408       .  A
C517        C518   1.398       .  A
C517       Br529   1.920       .  S
C518        H521   1.084       .  S
C520        C522   1.398       .  A
C520        C526   1.405       .  A
C522        C523   1.398       .  A
C522        H527   1.084       .  S
C523        C524   1.423       .  A
C523       Br531   1.925       .  S
C524        C525   1.414       .  A
C525        C526   1.398       .  A
C525        H528   1.075       .  S
C526       Br532   1.921       .  S
C533        C534   1.421       .  A
C533        C538   1.415       .  A
C534        C535   1.398       .  A
C534       Br550   1.925       .  S
C535        C536   1.400       .  A
C535        H539   1.084       .  S
C536        C540   1.476       .  S
C536        C537   1.401       .  A
C537        C538   1.395       .  A
C537       Br549   1.920       .  S
C538        H541   1.076       .  S
C540        C542   1.403       .  A
C540        C546   1.404       .  A
C542        C543   1.401       .  A
C542        H547   1.084       .  S
C543        C544   1.416       .  A
C543       Br551   1.920       .  S
C544        C545   1.409       .  A
C545        C546   1.394       .  A
C545        H548   1.083       .  S
C546       Br552   1.920       .  S
C553        C554   1.409       .  A
C553        C558   1.403       .  A
C554        C555   1.395       .  A
C554       Br570   1.919       .  S
C555        C556   1.400       .  A
C555        H559   1.084       .  S
C556        C560   1.479       .  S
C556        C557   1.410       .  A
C557        C558   1.404       .  A
C557       Br569   1.917   1_655  S
C558        H561   1.083       .  S
C560        C562   1.402       .  A
C560        C566   1.407       .  A
C562        C563   1.402       .  A
C562        H567   1.083       .  S
C563        C564   1.412       .  A
C563       Br571   1.912       .  S
C564        C565   1.405       .  A
C565        C566   1.397       .  A
C565        H568   1.084       .  S
C566       Br572   1.919       .  S
C573        C574   1.404       .  A
C573        C578   1.402       .  A
C574        C575   1.399       .  A
C574       Br590   1.915       .  S
C575        C576   1.405       .  A
C575        H579   1.084       .  S
C576        C580   1.479       .  S
C576        C577   1.408       .  A
C577        C578   1.397       .  A
C577       Br589   1.918       .  S
C578        H581   1.084       .  S
C580        C582   1.401       .  A
C580        C586   1.407       .  A
C582        C583   1.397       .  A
C582        H587   1.084       .  S
C583        C584   1.414       .  A
C583       Br591   1.922       .  S
C584        C585   1.405       .  A
C585        C586   1.399       .  A
C585        H588   1.084       .  S
C586       Br592   1.918   1_565  S
C593        C594   1.414       .  A
C593        C598   1.405       .  A
C594        C595   1.404       .  A
C594       Br610   1.920       .  S
C595        C596   1.403       .  A
C595        H599   1.083       .  S
C596        C600   1.480       .  S
C596        C597   1.406       .  A
C597        C598   1.398       .  A
C597       Br609   1.919       .  S
C598        H601   1.084   1_554  S
C600        C602   1.397       .  A
C600        C606   1.401       .  A
C602        C603   1.401       .  A
C602        H607   1.084       .  S
C603        C604   1.424       .  A
C603       Br611   1.916       .  S
C604        C605   1.420       .  A
C605        C606   1.401       .  A
C605        H608   1.076       .  S
C606       Br612   1.919   1_565  S
C613        C614   1.424       .  A
C613        C618   1.412       .  A
C614        C615   1.398       .  A
C614       Br630   1.925   1_655  S
C615        C616   1.397       .  A
C615        H619   1.084   1_655  S
C616        C620   1.482       .  S
C616        C617   1.407       .  A
C617        C618   1.400       .  A
C617       Br629   1.921       .  S
C618        H621   1.076       .  S
C620        C622   1.399       .  A
C620        C626   1.409       .  A
C622        C623   1.396       .  A
C622        H627   1.084       .  S
C623        C624   1.418       .  A
C623       Br631   1.924       .  S
C624        C625   1.407       .  A
C625        C626   1.402       .  A
C625        H628   1.083   1_655  S
C626       Br632   1.918   1_655  S
