geometry optimzed in LAMMPS
_audit_creation_date              2020-11-30 
_audit_creation_method            'lammps2cif' 
_symmetry_space_group_name_H-M    'P1' 
_symmetry_Int_Tables_number       1 
_symmetry_cell_setting            triclinic 
loop_ 
_symmetry_equiv_pos_as_xyz 
  x,y,z 
_cell_length_a                    28.55404221 
_cell_length_b                    28.60424032133589 
_cell_length_c                    45.19542698083281 
_cell_angle_alpha                 90.01177874329751 
_cell_angle_beta                  90.07059017271091 
_cell_angle_gamma                 121.13580045577665 
loop_ 
_atom_site_label 
_atom_site_type_symbol 
_atom_site_fract_x 
_atom_site_fract_y 
_atom_site_fract_z 
_atom_site_charge 
O1          O  0.30902443  0.57190560  0.02114783    -0.82000
C2          C  0.28558076  0.72451661  0.95770794     0.97300
O3          O  0.25852797  0.67382154  0.96257347    -0.71200
O4          O  0.24615352  0.57781700  0.97310588    -0.74800
Al5        Al  0.26000122  0.63833089  0.99769365     1.49000
C6          C  0.27670220  0.56777911  0.95753575     0.92600
O7          O  0.42455278  0.67727983  0.97335010    -0.81000
O8          O  0.43171110  0.74639924  0.02180819    -0.74500
Al9        Al  0.36324445  0.62941513  0.99733211     1.90100
O10         O  0.41134457  0.74395301  0.96196970    -0.73600
O11         O  0.34372266  0.75087449  0.03253876    -0.73500
O12         O  0.32777851  0.75546594  0.97281889    -0.79100
O13         O  0.25788622  0.69170413  0.02220166    -0.77300
O14         O  0.33270211  0.67029159  0.99740896    -1.13500
O15         O  0.25251072  0.59902439  0.03294851    -0.72600
C16         C  0.27061075  0.56758998  0.03693887     0.98100
C17         C  0.43521064  0.71787325  0.95747234     0.94500
Al18       Al  0.37500975  0.74295464  0.99729742     1.55600
O19         O  0.32761896  0.59314743  0.96195159    -0.77300
C20         C  0.29347540  0.73147170  0.03729403     0.98600
C21         C  0.43441019  0.71117644  0.03740975     0.93500
O22         O  0.40216302  0.66093291  0.03277708    -0.82600
O23         O  0.74106613  0.32321986  0.03406677    -0.82000
C24         C  0.56863464  0.28885592  0.95724115     0.97300
O25         O  0.57087377  0.25343345  0.97285482    -0.71200
O26         O  0.65843230  0.24805186  0.96299754    -0.74800
Al27       Al  0.62638915  0.25592901  0.99785141     1.49000
C28         C  0.70869990  0.26698662  0.95862653     0.92600
O29         O  0.75225751  0.39949109  0.96350788    -0.81000
O30         O  0.67513144  0.40667644  0.03297022    -0.74500
Al31       Al  0.74219270  0.35945003  0.99873790     1.90100
O32         O  0.69547863  0.42715252  0.97358575    -0.73600
O33         O  0.57801131  0.32313887  0.02117318    -0.73500
O34         O  0.60138276  0.33902175  0.96184972    -0.79100
O35         O  0.58900720  0.25507406  0.03276566    -0.77300
O36         O  0.66957276  0.32858399  0.99801053    -1.13500
O37         O  0.67220686  0.24207010  0.02270840    -0.72600
C38         C  0.71364313  0.27241744  0.03844373     0.98100
C39         C  0.73456051  0.43099223  0.95857242     0.94500
Al40       Al  0.64007008  0.37037733  0.99744166     1.55600
O41         O  0.74421505  0.30577137  0.97431656    -0.77300
C42         C  0.56559165  0.28175170  0.03680868     0.98600
C43         C  0.72573470  0.43091986  0.03820583     0.93500
O44         O  0.75631194  0.42008392  0.02325224    -0.82600
C45         C  0.00006544  0.95077896  0.24789666     0.02000
C46         C  0.95052986  0.95104939  0.24829959     0.02000
C47         C  0.95201193  0.00138644  0.24847645     0.02000
C48         C  0.00296199  0.05136270  0.24866435     0.02000
C49         C  0.05249323  0.05108177  0.24842442     0.02000
C50         C  0.05105696  0.00077665  0.24786121     0.02000
C51         C  0.84182954  0.03272043  0.22799724     0.02900
C52         C  0.88883047  0.02897550  0.22654709    -0.13300
C53         C  0.90004289  0.00192660  0.24886996     0.00400
C54         C  0.86233100  0.97627197  0.27192395    -0.11800
C55         C  0.81333816  0.97640563  0.27243966     0.02900
C56         C  0.80390912  0.00564962  0.25074790    -0.11200
H57         H  0.91779696  0.04884276  0.20869519     0.08500
H58         H  0.87105408  0.95591046  0.28938983     0.06000
H59         H  0.76625222  0.00618982  0.25107032     0.05800
C60         C  0.16202420  0.97188905  0.22507579     0.02900
C61         C  0.20000639  0.99795136  0.24799533    -0.13300
C62         C  0.19014585  0.02498225  0.27080383     0.00400
C63         C  0.14113407  0.02516748  0.27077989    -0.11800
C64         C  0.10316311  0.00039423  0.24763388     0.02900
C65         C  0.11431570  0.97454982  0.22457681    -0.11200
H66         H  0.23799545  0.99804670  0.24774120     0.08500
H67         H  0.13228581  0.04435165  0.28882852     0.06000
H68         H  0.08497823  0.95510866  0.20678941     0.05800
C69         C  0.16693247  0.19428422  0.26897533     0.02900
C70         C  0.20493767  0.20441909  0.24651024    -0.13300
C71         C  0.19406999  0.16456053  0.22503594     0.00400
C72         C  0.14366136  0.11524365  0.22545814    -0.11800
C73         C  0.10605524  0.10375018  0.24831090     0.02900
C74         C  0.11870704  0.14294622  0.27048156    -0.11200
H75         H  0.24347050  0.24300449  0.24614834     0.08500
H76         H  0.13362645  0.08557346  0.20798077     0.06000
H77         H  0.08965064  0.13430079  0.28810219     0.05800
C78         C  0.97931843  0.16566286  0.27152554     0.02900
C79         C  0.00605505  0.20308941  0.24852817    -0.13300
C80         C  0.03200197  0.19171622  0.22575441     0.00400
C81         C  0.03013910  0.14181655  0.22571679    -0.11800
C82         C  0.00438948  0.10426095  0.24881690     0.02900
C83         C  0.97963723  0.11677596  0.27186431    -0.11200
H84         H  0.00651836  0.24119476  0.24826480     0.08500
H85         H  0.04861830  0.13204696  0.20768031     0.06000
H86         H  0.96036652  0.08821930  0.28994049     0.05800
C87         C  0.83451980  0.81124718  0.27259641     0.02900
C88         C  0.79515789  0.80066291  0.25081157    -0.13300
C89         C  0.80623000  0.83825040  0.22799494     0.00400
C90         C  0.85780869  0.88623922  0.22667457    -0.11800
C91         C  0.89687021  0.89842563  0.24892008     0.02900
C92         C  0.88467846  0.86090642  0.27197337    -0.11200
H93         H  0.75625604  0.76243546  0.25115355     0.08500
H94         H  0.86705035  0.91511848  0.20888466     0.06000
H95         H  0.91440971  0.87037170  0.28938659     0.05800
C96         C  0.02274089  0.83678255  0.27200519     0.02900
C97         C  0.02401732  0.88636599  0.27129778    -0.13300
C98         C  0.99852512  0.89787083  0.24825793     0.00400
C99         C  0.97044364  0.85859082  0.22611183    -0.11800
C100        C  0.96593502  0.80740872  0.22753017     0.02900
C101        C  0.99297837  0.79721147  0.25029783    -0.11200
H102        H  0.04486037  0.91613495  0.28872467     0.08500
H103        H  0.95042077  0.86728974  0.20843070     0.06000
H104        H  0.99187082  0.75878647  0.25073058     0.05800
O105        O  0.57373383  0.30639391  0.47434232    -0.82000
C106        C  0.73020778  0.28917627  0.53795101     0.97300
O107        O  0.67928444  0.26162465  0.53357472    -0.71200
O108        O  0.58180351  0.24596290  0.52292030    -0.74800
Al109      Al  0.64284913  0.26072870  0.49839877     1.49000
C110        C  0.57112037  0.27612939  0.53838892     0.92600
O111        O  0.67871134  0.42418470  0.52171093    -0.81000
O112        O  0.74763644  0.43190869  0.47304784    -0.74500
Al113      Al  0.63108544  0.36200623  0.49807765     1.90100
O114        O  0.74703455  0.41326179  0.53300113    -0.73600
O115        O  0.75378675  0.34507078  0.46266682    -0.73500
O116        O  0.76043332  0.33080497  0.52237922    -0.79100
O117        O  0.69696862  0.25933496  0.47400732    -0.77300
O118        O  0.67336811  0.33308353  0.49811126    -1.13500
O119        O  0.60286572  0.25125580  0.46317051    -0.72600
C120        C  0.57047414  0.26812070  0.45880313     0.98100
C121        C  0.72016148  0.43636279  0.53735279     0.94500
Al122      Al  0.74603765  0.37654952  0.49780293     1.55600
O123        O  0.59575319  0.32684942  0.53376763    -0.77300
C124        C  0.73566769  0.29501301  0.45839666     0.98600
C125        C  0.71147524  0.43335728  0.45758733     0.93500
O126        O  0.66143947  0.40037431  0.46248002    -0.82600
O127        O  0.25501652  0.58720450  0.46216748    -0.82000
C128        C  0.43165037  0.73232257  0.53636686     0.97300
O129        O  0.42805958  0.69393896  0.52081935    -0.71200
O130        O  0.34055421  0.59974040  0.53230066    -0.74800
Al131      Al  0.37111026  0.63874412  0.49687865     1.49000
C132        C  0.29052923  0.56714989  0.53741256     0.92600
O133        O  0.24797724  0.65587006  0.53222729    -0.81000
O134        O  0.32273177  0.73949915  0.46161819    -0.74500
Al135      Al  0.25604659  0.62415663  0.49723349     1.90100
O136        O  0.30535029  0.74157113  0.52115351    -0.73600
O137        O  0.42018928  0.75506331  0.47232659    -0.73500
O138        O  0.39952989  0.74956718  0.53202888    -0.79100
O139        O  0.40690710  0.67446744  0.46142909    -0.77300
O140        O  0.32876217  0.66769207  0.49695646    -1.13500
O141        O  0.32391529  0.57695320  0.47289600    -0.72600
C142        C  0.28232536  0.56472928  0.45738803     0.98100
C143        C  0.26634176  0.70595504  0.53658001     0.94500
Al144      Al  0.35929107  0.74016087  0.49678947     1.55600
O145        O  0.25437491  0.56904233  0.52219887    -0.77300
C146        C  0.43141757  0.72521708  0.45698027     0.98600
C147        C  0.27191930  0.71126237  0.45690110     0.93500
O148        O  0.24177822  0.66949746  0.47237510    -0.82600
C149        C  0.95116077  0.99973554  0.74732109     0.02000
C150        C  0.94974482  0.94938191  0.74738463     0.02000
C151        C  0.99945294  0.94926626  0.74732486     0.02000
C152        C  0.05042960  0.99946049  0.74725361     0.02000
C153        C  0.05161146  0.04970383  0.74697323     0.02000
C154        C  0.00203926  0.04979117  0.74687345     0.02000
C155        C  0.16148069  0.96983570  0.76918343     0.02900
C156        C  0.20109666  0.99950147  0.74748642    -0.13300
C157        C  0.19212126  0.02897023  0.72567726     0.00400
C158        C  0.14186181  0.02666920  0.72499096    -0.11800
C159        C  0.10279945  0.99939938  0.74732958     0.02900
C160        C  0.11349363  0.97199659  0.76969912    -0.11200
H161        H  0.23910550  0.99963341  0.74755846     0.08500
H162        H  0.13382593  0.04782389  0.70769977     0.06000
H163        H  0.08340909  0.95070030  0.78688249     0.05800
C164        C  0.84150951  0.03160532  0.76824117     0.02900
C165        C  0.88816669  0.02718841  0.76967045    -0.13300
C166        C  0.89921927  0.00035599  0.74711631     0.00400
C167        C  0.86177492  0.97565371  0.72378799    -0.11800
C168        C  0.81347357  0.97707889  0.72301248     0.02900
C169        C  0.80407155  0.00579420  0.74505254    -0.11200
H170        H  0.91707165  0.04642392  0.78766137     0.08500
H171        H  0.87042234  0.95548376  0.70618571     0.06000
H172        H  0.76672716  0.00691715  0.74459979     0.05800
C173        C  0.97487005  0.16205902  0.72496642     0.02900
C174        C  0.97743665  0.11444716  0.72390727    -0.13300
C175        C  0.00336493  0.10265178  0.74663922     0.00400
C176        C  0.02939906  0.14047584  0.76963916    -0.11800
C177        C  0.03030550  0.18993739  0.76989195     0.02900
C178        C  0.00202949  0.19993841  0.74778363    -0.11200
H179        H  0.95724206  0.08534912  0.70612048     0.08500
H180        H  0.04889959  0.13124910  0.78738819     0.06000
H181        H  0.00215690  0.23787960  0.74788396     0.05800
C182        C  0.16757400  0.18991378  0.72315422     0.02900
C183        C  0.20631031  0.20076884  0.74537335    -0.13300
C184        C  0.19468534  0.16336735  0.76834994     0.00400
C185        C  0.14327230  0.11521917  0.76942689    -0.11800
C186        C  0.10497904  0.10259692  0.74669697     0.02900
C187        C  0.11760605  0.13999120  0.72351487    -0.11200
H188        H  0.24512702  0.23908986  0.74531397     0.08500
H189        H  0.13370610  0.08651311  0.78735342     0.06000
H190        H  0.08835239  0.13015549  0.70578749     0.05800
C191        C  0.02559085  0.83683466  0.72425903     0.02900
C192        C  0.99833635  0.79846839  0.74671511    -0.13300
C193        C  0.97089410  0.80829197  0.76926144     0.00400
C194        C  0.97254204  0.85816614  0.76989805    -0.11800
C195        C  0.99833430  0.89645770  0.74700312     0.02900
C196        C  0.02375021  0.88485355  0.72387995    -0.11200
H197        H  0.99848596  0.76064782  0.74665023     0.08500
H198        H  0.95261808  0.86663639  0.78771025     0.06000
H199        H  0.04380693  0.91418928  0.70621239     0.05800
C200        C  0.83484518  0.80716354  0.72540962     0.02900
C201        C  0.79531858  0.79760076  0.74680184    -0.13300
C202        C  0.80541576  0.83709616  0.76834636     0.00400
C203        C  0.85678195  0.88552629  0.76913455    -0.11800
C204        C  0.89601989  0.89666075  0.74719046     0.02900
C205        C  0.88403319  0.85774842  0.72494325    -0.11200
H206        H  0.75660091  0.75917970  0.74670322     0.08500
H207        H  0.86571898  0.91558326  0.78621348     0.06000
H208        H  0.91404132  0.86613780  0.70791938     0.05800
C209        C  0.27413634  0.52521296  0.56073595    -0.03600
C210        C  0.21851326  0.48871454  0.56705870    -0.09400
C211        C  0.20311843  0.44700824  0.58782550    -0.17000
C212        C  0.24304606  0.44127505  0.60251054     0.25100
C213        C  0.29847762  0.47805208  0.59680397    -0.18700
C214        C  0.31397718  0.51980657  0.57609926    -0.07600
C215        C  0.22728037  0.39682666  0.62281444    -0.14100
C216        C  0.21520778  0.35938993  0.63949983    -0.13800
C217        C  0.20236586  0.31519620  0.65949281     0.25000
C218        C  0.24262322  0.30325169  0.66700376    -0.19200
C219        C  0.23099162  0.26165319  0.68720792    -0.07700
C220        C  0.17886518  0.23145951  0.70018735    -0.03700
C221        C  0.13829109  0.24300977  0.69207131    -0.09100
C222        C  0.15003949  0.28468589  0.67185802    -0.16700
H223        H  0.18688047  0.49186973  0.55565967     0.11500
H224        H  0.16008634  0.41879320  0.59211748     0.10700
H225        H  0.32972002  0.47400176  0.60806116     0.10700
H226        H  0.35712057  0.54721954  0.57175021     0.11200
H227        H  0.28317494  0.32644162  0.65745387     0.11300
H228        H  0.26278189  0.25317544  0.69276002     0.11200
H229        H  0.09798897  0.22084916  0.70197112     0.11400
H230        H  0.11857618  0.29360127  0.66620174     0.10200
C231        C  0.24117372  0.72341465  0.55927486    -0.03600
C232        C  0.19727719  0.68464463  0.57659177    -0.05800
C233        C  0.17196128  0.70129054  0.59698390    -0.17000
C234        C  0.19015608  0.75679572  0.60031157     0.25100
C235        C  0.23426591  0.79569713  0.58349416    -0.18700
C236        C  0.25966950  0.77918643  0.56312285    -0.07600
C237        C  0.16324973  0.77377086  0.62077990    -0.14100
C238        C  0.14042956  0.78736256  0.63811161    -0.13800
C239        C  0.11306060  0.80205223  0.65956156     0.25000
C240        C  0.07797647  0.81993749  0.65044577    -0.19200
C241        C  0.05017221  0.83247299  0.67148601    -0.07700
C242        C  0.05692412  0.82672744  0.70179862    -0.03700
C243        C  0.09288120  0.80960273  0.71073651    -0.09100
C244        C  0.12077083  0.79737797  0.68973495    -0.16700
H245        H  0.18211289  0.64144532  0.57416470     0.11500
H246        H  0.13791548  0.67085528  0.60996537     0.10700
H247        H  0.24874734  0.83877356  0.58594660     0.10700
H248        H  0.29334489  0.81006533  0.55013724     0.11200
H249        H  0.07169041  0.82361713  0.62712375     0.11300
H250        H  0.02243114  0.84531757  0.66412474     0.11200
H251        H  0.09926755  0.80559793  0.73400736     0.11400
H252        H  0.14796758  0.78378729  0.69702991     0.10200
C253        C  0.47493039  0.75779084  0.55921194    -0.03600
C254        C  0.48121475  0.80163213  0.57644555    -0.09400
C255        C  0.52375752  0.82688430  0.59708882    -0.17000
C256        C  0.56041272  0.80861596  0.60074874     0.25100
C257        C  0.55402481  0.76459408  0.58399838    -0.18700
C258        C  0.51157951  0.73929120  0.56338830    -0.07600
C259        C  0.60526799  0.83573418  0.62121761    -0.14100
C260        C  0.64317105  0.85948979  0.63808486    -0.13800
C261        C  0.68787174  0.88959740  0.65830923     0.25000
C262        C  0.71419020  0.86491320  0.67141205    -0.19200
C263        C  0.75621607  0.89389053  0.69194134    -0.07700
C264        C  0.77209928  0.94778392  0.69962258    -0.03700
C265        C  0.74622037  0.97256276  0.68586922    -0.09100
C266        C  0.70436470  0.94360396  0.66534852    -0.16700
H267        H  0.45368462  0.81678467  0.57375379     0.11500
H268        H  0.52838286  0.86096898  0.60997700     0.10700
H269        H  0.58216611  0.75014406  0.58666149     0.10700
H270        H  0.50787770  0.70562519  0.55049291     0.11200
H271        H  0.70170181  0.82309925  0.66610769     0.11300
H272        H  0.77517153  0.87372134  0.70245164     0.11200
H273        H  0.75818592  0.01424234  0.69114010     0.11400
H274        H  0.68442719  0.96313393  0.65522297     0.10200
C275        C  0.94248506  0.17169007  0.70288706    -0.03600
C276        C  0.90655862  0.18855511  0.71223924    -0.09400
C277        C  0.87633883  0.19851658  0.69159858    -0.17000
C278        C  0.88172158  0.19188713  0.66137537     0.25100
C279        C  0.91693697  0.17448444  0.65185386    -0.18700
C280        C  0.94705355  0.16421282  0.67252227    -0.07600
C281        C  0.85252728  0.20489181  0.64020822    -0.14100
C282        C  0.82945225  0.21821730  0.62287392    -0.13800
C283        C  0.80397957  0.23650856  0.60220418     0.25000
C284        C  0.83580827  0.28598302  0.58726456    -0.19200
C285        C  0.81163314  0.30357614  0.56670830    -0.07700
C286        C  0.75515752  0.27184972  0.56084779    -0.03700
C287        C  0.72329835  0.22255528  0.57632392    -0.09100
C288        C  0.74763233  0.20498975  0.59685859    -0.16700
H289        H  0.90174748  0.19381355  0.73555101     0.11500
H290        H  0.84915227  0.21188502  0.69920091     0.10700
H291        H  0.92154140  0.16944162  0.62848556     0.10700
H292        H  0.97468606  0.15151325  0.66479725     0.11200
H293        H  0.87943714  0.31078119  0.59133305     0.11300
H294        H  0.83725994  0.34175782  0.55521962     0.11200
H295        H  0.67974196  0.19719708  0.57227310     0.11400
H296        H  0.72261210  0.16668428  0.60837601     0.10200
C297        C  0.52817124  0.25135412  0.56140235    -0.03600
C298        C  0.51777383  0.28426239  0.58015193    -0.09400
C299        C  0.47570541  0.26043311  0.60109123    -0.17000
C300        C  0.44346250  0.20351385  0.60348105     0.25100
C301        C  0.45378794  0.17053187  0.58506894    -0.18700
C302        C  0.49586175  0.19421337  0.56420999    -0.07600
C303        C  0.39969564  0.17864854  0.62472768    -0.14100
C304        C  0.36292278  0.15576966  0.64232285    -0.13800
C305        C  0.31954693  0.12608525  0.66334493     0.25000
C306        C  0.26521710  0.09443433  0.65370659    -0.19200
C307        C  0.22351678  0.06313885  0.67396328    -0.07700
C308        C  0.23577712  0.06297485  0.70409928    -0.03700
C309        C  0.29033990  0.09574147  0.71363898    -0.09100
C310        C  0.33190352  0.12701820  0.69338182    -0.16700
H311        H  0.54192772  0.32836702  0.57854028     0.11500
H312        H  0.46815197  0.28636020  0.61528436     0.10700
H313        H  0.42912009  0.12643281  0.58673785     0.10700
H314        H  0.50264971  0.16773349  0.55005356     0.11200
H315        H  0.25521044  0.09330587  0.63048894     0.11300
H316        H  0.18192045  0.03812601  0.66597795     0.11200
H317        H  0.30080648  0.09726879  0.73680343     0.11400
H318        H  0.37376606  0.15147794  0.70110933     0.10200
C319        C  0.73724459  0.47869668  0.56052056    -0.03600
C320        C  0.70840073  0.50599205  0.56417866    -0.09400
C321        C  0.72436675  0.54643887  0.58570456    -0.17000
C322        C  0.76927931  0.56020507  0.60393155     0.25100
C323        C  0.79826723  0.53327150  0.60058660    -0.18700
C324        C  0.78237771  0.49270574  0.57897292    -0.07600
C325        C  0.78533591  0.60219047  0.62588967    -0.14100
C326        C  0.79652177  0.63784931  0.64368150    -0.13800
C327        C  0.80755863  0.68062787  0.66431129     0.25000
C328        C  0.79447586  0.66837084  0.69422817    -0.19200
C329        C  0.80336338  0.70961708  0.71407919    -0.07700
C330        C  0.82535993  0.76364648  0.70420207    -0.03700
C331        C  0.83888634  0.77570846  0.67415804    -0.09100
C332        C  0.82991105  0.73436083  0.65432584    -0.16700
H333        H  0.67353341  0.49626928  0.55032598     0.11500
H334        H  0.70168351  0.56706565  0.58809645     0.10700
H335        H  0.83313262  0.54368267  0.61461415     0.10700
H336        H  0.80537535  0.47241859  0.57668854     0.11200
H337        H  0.77721826  0.62692335  0.70218717     0.11300
H338        H  0.79354516  0.69941520  0.73721295     0.11200
H339        H  0.85556535  0.81689682  0.66594817     0.11400
H340        H  0.83995275  0.74419377  0.63117418     0.10200
C341        C  0.05328484  0.82658525  0.29502720    -0.03600
C342        C  0.02926275  0.77568479  0.30928687    -0.09400
C343        C  0.05926403  0.76490662  0.32967798    -0.17000
C344        C  0.11358360  0.80477300  0.33603495     0.25100
C345        C  0.13751264  0.85602952  0.32241628    -0.18700
C346        C  0.10748712  0.86695442  0.30204860    -0.07600
C347        C  0.14488191  0.79218252  0.35592624    -0.14100
C348        C  0.16930549  0.77906504  0.37241716    -0.13800
C349        C  0.19618786  0.76129845  0.39244300     0.25000
C350        C  0.25085389  0.79677313  0.40049240    -0.19200
C351        C  0.27611936  0.78007175  0.42093222    -0.07700
C352        C  0.24677997  0.72776423  0.43369718    -0.03700
C353        C  0.19219475  0.69202067  0.42498567    -0.09100
C354        C  0.16714890  0.70869468  0.40445021    -0.16700
H355        H  0.98737472  0.74419603  0.30454242     0.11500
H356        H  0.04031129  0.72520809  0.34020707     0.10700
H357        H  0.17954439  0.88717388  0.32717442     0.10700
H358        H  0.12705784  0.90632296  0.29116973     0.11200
H359        H  0.27369850  0.83755841  0.39128468     0.11300
H360        H  0.31814255  0.80850604  0.42725391     0.11200
H361        H  0.16865353  0.65136875  0.43427593     0.11400
H362        H  0.12487991  0.68082625  0.39826578     0.10200
C363        C  0.72785798  0.47525551  0.43427182    -0.03600
C364        C  0.68798492  0.48011546  0.41858148    -0.09400
C365        C  0.70347879  0.52191009  0.39790605    -0.17000
C366        C  0.75893119  0.55922965  0.39257119     0.25100
C367        C  0.79888346  0.55400569  0.40756881    -0.18700
C368        C  0.78350055  0.51227765  0.42829799    -0.07600
C369        C  0.77475410  0.60377124  0.37235471    -0.14100
C370        C  0.78711309  0.64140720  0.35578640    -0.13800
C371        C  0.80014844  0.68582738  0.33595314     0.25000
C372        C  0.85156914  0.71448731  0.32240365    -0.19200
C373        C  0.86328669  0.75631209  0.30230794    -0.07700
C374        C  0.82354988  0.76971545  0.29545500    -0.03700
C375        C  0.77241462  0.74140692  0.30959705    -0.09100
C376        C  0.76084758  0.69976000  0.32974293    -0.16700
H377        H  0.64482262  0.45226053  0.42265963     0.11500
H378        H  0.67222150  0.52557575  0.38639519     0.10700
H379        H  0.84192380  0.58265319  0.40355615     0.10700
H380        H  0.81515059  0.50953345  0.43995210     0.11200
H381        H  0.88228603  0.70402472  0.32705299     0.11300
H382        H  0.90279074  0.77714941  0.29151654     0.11200
H383        H  0.74135782  0.75138780  0.30495846     0.11400
H384        H  0.72102839  0.67800755  0.34022447     0.10200
C385        C  0.76087066  0.27777311  0.43560027    -0.03600
C386        C  0.74337006  0.22218215  0.43207631    -0.09400
C387        C  0.76881759  0.20596830  0.41155592    -0.17000
C388        C  0.81193474  0.24499118  0.39423740     0.25100
C389        C  0.82921930  0.30032608  0.39729896    -0.18700
C390        C  0.80387328  0.31667481  0.41784398    -0.07600
C391        C  0.83895808  0.22836321  0.37363504    -0.14100
C392        C  0.86256503  0.21537678  0.35649248    -0.13800
C393        C  0.89231171  0.20200971  0.33592876     0.25000
C394        C  0.94520613  0.24224375  0.32743979    -0.19200
C395        C  0.97396872  0.23010394  0.30694916    -0.07700
C396        C  0.95013005  0.17747091  0.29465262    -0.03700
C397        C  0.89723461  0.13698932  0.30360953    -0.09100
C398        C  0.86845840  0.14925738  0.32411270    -0.16700
H399        H  0.71045772  0.19123227  0.44543129     0.11500
H400        H  0.75514001  0.16303909  0.40936796     0.10700
H401        H  0.86257487  0.33086982  0.38398143     0.10700
H402        H  0.81829527  0.35975421  0.42002437     0.11200
H403        H  0.96409559  0.28313431  0.33652113     0.11300
H404        H  0.01486354  0.26187389  0.30068247     0.11200
H405        H  0.87768404  0.09633266  0.29421011     0.11400
H406        H  0.82747289  0.11782027  0.33049514     0.10200
C407        C  0.26553911  0.52314791  0.43379433    -0.03600
C408        C  0.29580288  0.49764607  0.42889490    -0.09400
C409        C  0.27974058  0.45756267  0.40712494    -0.17000
C410        C  0.23330011  0.44235737  0.38990099     0.25100
C411        C  0.20313784  0.46781401  0.39433837    -0.18700
C412        C  0.21915226  0.50803661  0.41616964    -0.07600
C413        C  0.21664278  0.40007107  0.36803935    -0.14100
C414        C  0.20513373  0.36407199  0.35040737    -0.13800
C415        C  0.19411987  0.32107682  0.32990717     0.25000
C416        C  0.17481465  0.26802354  0.34024375    -0.19200
C417        C  0.16600581  0.22662256  0.32047650    -0.07700
C418        C  0.17669193  0.23795393  0.29014764    -0.03700
C419        C  0.19572952  0.29128320  0.27993778    -0.09100
C420        C  0.20440108  0.33256871  0.29971972    -0.16700
H421        H  0.33176915  0.50839106  0.44201083     0.11500
H422        H  0.30340452  0.43816138  0.40385062     0.10700
H423        H  0.16713342  0.45636208  0.38107862     0.10700
H424        H  0.19510684  0.52701951  0.41936195     0.11200
H425        H  0.16700158  0.25877729  0.36359814     0.11300
H426        H  0.15161029  0.18597099  0.32892475     0.11200
H427        H  0.20333759  0.30085172  0.25660576     0.11400
H428        H  0.21933846  0.37348450  0.29148923     0.10200
C429        C  0.23153445  0.05321152  0.29437618    -0.03600
C430        C  0.24593462  0.10589741  0.30376481    -0.09400
C431        C  0.28762587  0.13376763  0.32463164    -0.17000
C432        C  0.31516643  0.10922162  0.33635574     0.25100
C433        C  0.30031458  0.05643031  0.32753806    -0.18700
C434        C  0.25874131  0.02854784  0.30671847    -0.07600
C435        C  0.35937132  0.13833817  0.35701315    -0.14100
C436        C  0.39693671  0.16193499  0.37410875    -0.13800
C437        C  0.44164564  0.18958964  0.39463282     0.25000
C438        C  0.47739925  0.17054415  0.39939563    -0.19200
C439        C  0.52002557  0.19664036  0.41991280    -0.07700
C440        C  0.52726076  0.24205862  0.43597301    -0.03700
C441        C  0.49155534  0.26133718  0.43069688    -0.09100
C442        C  0.44904368  0.23522371  0.41016548    -0.16700
H443        H  0.22601134  0.12603720  0.29437880     0.11500
H444        H  0.29886344  0.17466170  0.33130624     0.10700
H445        H  0.32121114  0.03699193  0.33656239     0.10700
H446        H  0.24795251  0.98773388  0.30017004     0.11200
H447        H  0.47204610  0.13526029  0.38744526     0.11300
H448        H  0.54681129  0.18083032  0.42347675     0.11200
H449        H  0.49608840  0.29626495  0.44264824     0.11400
H450        H  0.42165595  0.25034549  0.40659759     0.10200
C451        C  0.77118726  0.94474477  0.29501859    -0.03600
C452        C  0.75680829  0.89089979  0.30171576    -0.09400
C453        C  0.71466603  0.85975339  0.32171096    -0.17000
C454        C  0.68666031  0.88218674  0.33527377     0.25100
C455        C  0.70129680  0.93600631  0.32905596    -0.18700
C456        C  0.74330284  0.96714582  0.30903760    -0.07600
C457        C  0.64253180  0.85015006  0.35539676    -0.14100
C458        C  0.60520600  0.82567559  0.37244085    -0.13800
C459        C  0.56088039  0.79985726  0.39320306     0.25000
C460        C  0.54681055  0.83191850  0.40992235    -0.19200
C461        C  0.50414444  0.80748896  0.43035224    -0.07700
C462        C  0.47493355  0.75051658  0.43435878    -0.03700
C463        C  0.48912513  0.71849512  0.41731089    -0.09100
C464        C  0.53188906  0.74309353  0.39683013    -0.16700
H465        H  0.77725376  0.87253080  0.29094808     0.11500
H466        H  0.70359587  0.81810376  0.32635712     0.10700
H467        H  0.67997985  0.95377887  0.33954436     0.10700
H468        H  0.75400451  0.00870522  0.30448255     0.11200
H469        H  0.56901544  0.87589871  0.40726202     0.11300
H470        H  0.49439203  0.83330756  0.44319174     0.11200
H471        H  0.46751181  0.67455883  0.41995845     0.11400
H472        H  0.54248705  0.71792863  0.38395857     0.10200
C473        C  0.83176682  0.06364074  0.79054951    -0.03600
C474        C  0.83908656  0.05854447  0.82089351    -0.09400
C475        C  0.82709553  0.08694448  0.84181804    -0.17000
C476        C  0.80801914  0.12095466  0.83262838     0.25100
C477        C  0.80190740  0.12721253  0.80243329    -0.18700
C478        C  0.81370317  0.09879583  0.78152529    -0.07600
C479        C  0.79306147  0.14815462  0.85410013    -0.14100
C480        C  0.77892651  0.17002716  0.87178735    -0.13800
C481        C  0.76106737  0.19520738  0.89294779     0.25000
C482        C  0.70559974  0.17006350  0.90033163    -0.19200
C483        C  0.68832833  0.19381474  0.92137550    -0.07700
C484        C  0.72644729  0.24294532  0.93542399    -0.03700
C485        C  0.78203004  0.26822137  0.92761275    -0.09100
C486        C  0.79915478  0.24451873  0.90647424    -0.16700
H487        H  0.85264412  0.03151776  0.82843994     0.11500
H488        H  0.83192380  0.08176509  0.86514691     0.10700
H489        H  0.78740534  0.15358030  0.79505219     0.10700
H490        H  0.80857373  0.10415838  0.75826383     0.11200
H491        H  0.67575354  0.13188815  0.88998845     0.11300
H492        H  0.64529878  0.17330997  0.92695947     0.11200
H493        H  0.81233202  0.30619108  0.93793021     0.11400
H494        H  0.84215941  0.26442478  0.90086720     0.10200
C495        C  0.83228622  0.06534610  0.20610201    -0.03600
C496        C  0.81527233  0.10106112  0.21560134    -0.09400
C497        C  0.80428437  0.13059383  0.19503540    -0.17000
C498        C  0.81016217  0.12479663  0.16476529     0.25100
C499        C  0.82795121  0.08999670  0.15512972    -0.18700
C500        C  0.83916816  0.06053550  0.17569860    -0.07600
C501        C  0.79624926  0.15321504  0.14359834    -0.14100
C502        C  0.78280768  0.17551525  0.12582914    -0.13800
C503        C  0.76506212  0.20013381  0.10429500     0.25000
C504        C  0.72324156  0.16704938  0.08443013    -0.19200
C505        C  0.70606454  0.19060333  0.06326329    -0.07700
C506        C  0.73071506  0.24770471  0.06160167    -0.03700
C507        C  0.77256604  0.28068102  0.08176656    -0.09100
C508        C  0.78952953  0.25696552  0.10303484    -0.16700
H509        H  0.81049213  0.10606668  0.23895363     0.11500
H510        H  0.79067348  0.15751407  0.20272633     0.10700
H511        H  0.83247287  0.08512680  0.13172932     0.10700
H512        H  0.85193026  0.03304765  0.16784949     0.11200
H513        H  0.70404467  0.12301321  0.08521632     0.11300
H514        H  0.67392873  0.16410902  0.04797846     0.11200
H515        H  0.79224843  0.32474238  0.08106328     0.11400
H516        H  0.82186871  0.28292355  0.11837107     0.10200
C517        C  0.52601837  0.27121520  0.93410355    -0.03600
C518        C  0.52028611  0.30999874  0.91794447    -0.09400
C519        C  0.47799658  0.29320679  0.89733524    -0.17000
C520        C  0.44097914  0.23753598  0.89255443     0.25100
C521        C  0.44688493  0.19861679  0.90813343    -0.18700
C522        C  0.48913221  0.21530101  0.92878245    -0.07600
C523        C  0.39663293  0.22061762  0.87192357    -0.14100
C524        C  0.36010578  0.20824928  0.85444946    -0.13800
C525        C  0.31797275  0.19570039  0.83296413     0.25000
C526        C  0.26459979  0.17862063  0.84208436    -0.19200
C527        C  0.22414809  0.16771297  0.82107533    -0.07700
C528        C  0.23689239  0.17422030  0.79076428    -0.03700
C529        C  0.29046694  0.19108074  0.78180993    -0.09100
C530        C  0.33071525  0.20168821  0.80279830    -0.16700
H531        H  0.54794985  0.35331126  0.92153422     0.11500
H532        H  0.47383820  0.32366214  0.88534231     0.10700
H533        H  0.41853451  0.15540947  0.90454692     0.10700
H534        H  0.49246840  0.18443137  0.94083626     0.11200
H535        H  0.25436744  0.17405690  0.86539231     0.11300
H536        H  0.18319513  0.15506536  0.82847107     0.11200
H537        H  0.30102152  0.19562318  0.75854602     0.11400
H538        H  0.37184561  0.21478812  0.79550078     0.10200
C539        C  0.76028912  0.47372004  0.93556611    -0.03600
C540        C  0.80576586  0.48103024  0.91949224    -0.09400
C541        C  0.83104550  0.52289524  0.89856855    -0.17000
C542        C  0.81115782  0.55782852  0.89346091     0.25100
C543        C  0.76557432  0.55042130  0.90908379    -0.18700
C544        C  0.74027772  0.50868731  0.92999046    -0.07600
C545        C  0.83777094  0.60170499  0.87246861    -0.14100
C546        C  0.85984134  0.63865452  0.85497044    -0.13800
C547        C  0.88610649  0.68198501  0.83364423     0.25000
C548        C  0.92113048  0.73600601  0.84293054    -0.19200
C549        C  0.94787776  0.77771489  0.82201869    -0.07700
C550        C  0.94007836  0.76554685  0.79165636    -0.03700
C551        C  0.90411937  0.71139294  0.78256127    -0.09100
C552        C  0.87728168  0.66990813  0.80343664    -0.16700
H553        H  0.82212608  0.45480031  0.92328598     0.11500
H554        H  0.86630073  0.52826466  0.88654750     0.10700
H555        H  0.74980625  0.57717346  0.90526430     0.10700
H556        H  0.70531646  0.50412261  0.94195455     0.11200
H557        H  0.92823146  0.74574419  0.86628261     0.11300
H558        H  0.97570641  0.81910596  0.82948891     0.11200
H559        H  0.89704802  0.70121716  0.75925206     0.11400
H560        H  0.85009508  0.62832545  0.79600909     0.10200
C561        C  0.52237102  0.26430142  0.05949323    -0.03600
C562        C  0.50404902  0.21595183  0.07575446    -0.09400
C563        C  0.46201930  0.19918311  0.09653394    -0.17000
C564        C  0.43798914  0.23057252  0.10129193     0.25100
C565        C  0.45621227  0.27883863  0.08535593    -0.18700
C566        C  0.49805432  0.29561799  0.06460485    -0.07600
C567        C  0.39471994  0.21376539  0.12251565    -0.14100
C568        C  0.35873672  0.20255482  0.14009390    -0.13800
C569        C  0.31657964  0.19240723  0.16097684     0.25000
C570        C  0.30637393  0.23405332  0.16784071    -0.19200
C571        C  0.26611011  0.22492726  0.18845712    -0.07700
C572        C  0.23556316  0.17393847  0.20246144    -0.03700
C573        C  0.24574332  0.13211933  0.19524146    -0.09100
C574        C  0.28606568  0.14134980  0.17461799    -0.16700
H575        H  0.52187045  0.19093272  0.07226721     0.11500
H576        H  0.44819763  0.16175215  0.10880477     0.10700
H577        H  0.43795686  0.30348306  0.08891566     0.10700
H578        H  0.51120115  0.33305852  0.05249025     0.11200
H579        H  0.32966618  0.27365448  0.15730593     0.11300
H580        H  0.25861403  0.25757673  0.19332055     0.11200
H581        H  0.22323129  0.09266002  0.20595733     0.11400
H582        H  0.29369383  0.10886164  0.16949189     0.10200
C583        C  0.74985261  0.47346017  0.06145079    -0.03600
C584        C  0.71693712  0.48784527  0.07750752    -0.09400
C585        C  0.74026788  0.52969047  0.09856884    -0.17000
C586        C  0.79667937  0.55760097  0.10384863     0.25100
C587        C  0.82962821  0.54311872  0.08826236    -0.18700
C588        C  0.80643122  0.50133566  0.06720345    -0.07600
C589        C  0.82102283  0.60134368  0.12509074    -0.14100
C590        C  0.84311751  0.63801302  0.14279243    -0.13800
C591        C  0.87162369  0.68109129  0.16409828     0.25000
C592        C  0.86841273  0.66850468  0.19420589    -0.19200
C593        C  0.89856666  0.70975370  0.21484253    -0.07700
C594        C  0.93252796  0.76420137  0.20559650    -0.03700
C595        C  0.93461193  0.77669346  0.17535212    -0.09100
C596        C  0.90438216  0.73531060  0.15472357    -0.16700
H597        H  0.67326967  0.46717598  0.07359043     0.11500
H598        H  0.71438635  0.54051366  0.11057130     0.10700
H599        H  0.87333405  0.56439091  0.09223843     0.10700
H600        H  0.83288654  0.49124134  0.05524383     0.11200
H601        H  0.84307697  0.62669342  0.20170358     0.11300
H602        H  0.89535188  0.69911325  0.23805429     0.11200
H603        H  0.96065409  0.81818399  0.16758348     0.11400
H604        H  0.90725820  0.74545196  0.13144474     0.10200
C605        C  0.06156716  0.23163144  0.79285172    -0.03600
C606        C  0.11459221  0.24439321  0.80076643    -0.09400
C607        C  0.14529307  0.28587685  0.82124881    -0.17000
C608        C  0.12327112  0.31488272  0.83406511     0.25100
C609        C  0.07019918  0.30174012  0.82670466    -0.18700
C610        C  0.03950194  0.26039668  0.80622143    -0.07600
C611        C  0.15503266  0.35869526  0.85447744    -0.14100
C612        C  0.17910327  0.39588966  0.87168300    -0.13800
C613        C  0.20428300  0.43998066  0.89265761     0.25000
C614        C  0.17189802  0.45532991  0.90809563    -0.19200
C615        C  0.19559876  0.49739760  0.92893483    -0.07700
C616        C  0.25216738  0.52479167  0.93458221    -0.03700
C617        C  0.28456617  0.50947111  0.91873741    -0.09100
C618        C  0.26069289  0.46724609  0.89789984    -0.16700
H619        H  0.13276409  0.22323412  0.79056408     0.11500
H620        H  0.18633991  0.29573261  0.82680558     0.10700
H621        H  0.05269970  0.32377324  0.83662948     0.10700
H622        H  0.99852979  0.25090670  0.80081306     0.11200
H623        H  0.12819429  0.43450393  0.90416193     0.11300
H624        H  0.16954387  0.50818636  0.94075830     0.11200
H625        H  0.32820616  0.52967773  0.92266117     0.11400
H626        H  0.28611760  0.45566080  0.88604482     0.10200
C627        C  0.06118282  0.23233970  0.20217034    -0.03600
C628        C  0.03687032  0.25895641  0.18877477    -0.09400
C629        C  0.06547577  0.29958540  0.16770965    -0.17000
C630        C  0.11866587  0.31412436  0.15981392     0.25100
C631        C  0.14296387  0.28723947  0.17267374    -0.18700
C632        C  0.11428303  0.24637025  0.19373020    -0.07600
C633        C  0.14831790  0.35747602  0.13895672    -0.14100
C634        C  0.17129046  0.39456998  0.12167423    -0.13800
C635        C  0.19714771  0.43889978  0.10099656     0.25000
C636        C  0.23860299  0.44364253  0.08253426    -0.19200
C637        C  0.26301281  0.48606021  0.06199054    -0.07700
C638        C  0.24606895  0.52421088  0.05959178    -0.03700
C639        C  0.20464210  0.51938205  0.07842173    -0.09100
C640        C  0.18034986  0.47692093  0.09902638    -0.16700
H641        H  0.99577893  0.24838336  0.19467967     0.11500
H642        H  0.04630588  0.32005378  0.15778971     0.10700
H643        H  0.18418800  0.29830116  0.16671661     0.10700
H644        H  0.13400624  0.22673124  0.20396439     0.11200
H645        H  0.25181156  0.41435762  0.08387804     0.11300
H646        H  0.29471420  0.48856703  0.04775805     0.11200
H647        H  0.19077250  0.54812025  0.07709341     0.11400
H648        H  0.14822666  0.47350866  0.11326294     0.10200
C649        C  0.26745771  0.74847974  0.93458488    -0.03600
C650        C  0.21715627  0.71645297  0.91986676    -0.09400
C651        C  0.19963506  0.73992129  0.89870880    -0.17000
C652        C  0.23219353  0.79556769  0.89195456     0.25100
C653        C  0.28245187  0.82755513  0.90631258    -0.18700
C654        C  0.29996284  0.80427624  0.92748693    -0.07600
C655        C  0.21422535  0.82027434  0.87049641    -0.14100
C656        C  0.20135667  0.84322470  0.85277237    -0.13800
C657        C  0.18882090  0.87299892  0.83168073     0.25000
C658        C  0.16655211  0.90404805  0.84119424    -0.19200
C659        C  0.15705600  0.93520103  0.82088947    -0.07700
C660        C  0.17000211  0.93585820  0.79081571    -0.03700
C661        C  0.19139493  0.90371625  0.78139892    -0.09100
C662        C  0.20079488  0.87260197  0.80170521    -0.16700
H663        H  0.19111989  0.67344301  0.92490571     0.11500
H664        H  0.16063792  0.71475686  0.88773919     0.10700
H665        H  0.30803875  0.87063825  0.90124804     0.10700
H666        H  0.33890605  0.83005948  0.93836639     0.11200
H667        H  0.15725293  0.90477863  0.86435876     0.11300
H668        H  0.14079548  0.95972754  0.82880400     0.11200
H669        H  0.20070448  0.90254047  0.75828615     0.11400
H670        H  0.21788815  0.84862887  0.79405630     0.10200
C671        C  0.47670050  0.73499809  0.93385542    -0.03600
C672        C  0.49464867  0.78375405  0.91807259    -0.09400
C673        C  0.53516174  0.80031202  0.89639977    -0.17000
C674        C  0.55793655  0.76823773  0.89021697     0.25100
C675        C  0.53981848  0.71938035  0.90555071    -0.18700
C676        C  0.49952504  0.70284113  0.92722855    -0.07600
C677        C  0.60036217  0.78539370  0.86843643    -0.14100
C678        C  0.63626162  0.79755639  0.85065742    -0.13800
C679        C  0.67902380  0.80940113  0.82984580     0.25000
C680        C  0.73327388  0.83361259  0.83951296    -0.19200
C681        C  0.77455057  0.84286722  0.81954582    -0.07700
C682        C  0.76198206  0.82793222  0.78964005    -0.03700
C683        C  0.70739229  0.80426985  0.78007846    -0.09100
C684        C  0.66620038  0.79495062  0.80008892    -0.16700
H685        H  0.47785210  0.80934592  0.92269228     0.11500
H686        H  0.54893252  0.83821375  0.88461754     0.10700
H687        H  0.55710760  0.69420575  0.90088364     0.10700
H688        H  0.48642719  0.66496072  0.93887750     0.11200
H689        H  0.74355577  0.84469916  0.86254955     0.11300
H690        H  0.81606981  0.86068383  0.82762036     0.11200
H691        H  0.69661808  0.79330512  0.75707920     0.11400
H692        H  0.62432218  0.77620460  0.79238396     0.10200
C693        C  0.17226500  0.94109362  0.20221813    -0.03600
C694        C  0.16355464  0.94603540  0.17204331    -0.09400
C695        C  0.17558804  0.91832111  0.15066887    -0.17000
C696        C  0.19615319  0.88526058  0.15928247     0.25100
C697        C  0.20400996  0.87949999  0.18929032    -0.18700
C698        C  0.19210571  0.90711728  0.21061500    -0.07600
C699        C  0.21037844  0.85792649  0.13753602    -0.14100
C700        C  0.22401454  0.83494994  0.12032289    -0.13800
C701        C  0.24144648  0.80780290  0.10027677     0.25000
C702        C  0.20269836  0.76211447  0.08429661    -0.19200
C703        C  0.21964444  0.73653805  0.06429470    -0.07700
C704        C  0.27569656  0.75643466  0.05995866    -0.03700
C705        C  0.31433367  0.80175992  0.07655437    -0.09100
C706        C  0.29725310  0.82724842  0.09658117    -0.16700
H707        H  0.14868203  0.97224788  0.16498873     0.11500
H708        H  0.16943053  0.92312004  0.12747262     0.10700
H709        H  0.21971291  0.85389587  0.19621309     0.10700
H710        H  0.19834988  0.90188430  0.23373580     0.11200
H711        H  0.15939838  0.74657459  0.08707320     0.11300
H712        H  0.18884445  0.70169809  0.05190043     0.11200
H713        H  0.35773784  0.81800455  0.07376298     0.11400
H714        H  0.32758834  0.86245777  0.10895443     0.10200
C715        C  0.47670231  0.72901227  0.06071609    -0.03600
C716        C  0.51813503  0.78432496  0.06327885    -0.09400
C717        C  0.55947802  0.80078982  0.08446877    -0.17000
C718        C  0.55980564  0.76229066  0.10342248     0.25100
C719        C  0.51832621  0.70730765  0.10132715    -0.18700
C720        C  0.47705123  0.69070535  0.08009313    -0.07600
C721        C  0.60314277  0.77894053  0.12469200    -0.14100
C722        C  0.63930456  0.79172583  0.14246916    -0.13800
C723        C  0.68171684  0.80515832  0.16391448     0.25000
C724        C  0.73558632  0.82496244  0.15469352    -0.19200
C725        C  0.77636491  0.83623055  0.17553520    -0.07700
C726        C  0.76357045  0.82750075  0.20582175    -0.03700
C727        C  0.70949587  0.80822786  0.21490127    -0.09100
C728        C  0.66885966  0.79715439  0.19405600    -0.16700
H729        H  0.51907921  0.81475893  0.04863457     0.11500
H730        H  0.59141918  0.84344913  0.08589965     0.10700
H731        H  0.51815996  0.67718536  0.11592879     0.10700
H732        H  0.44565405  0.64786594  0.07872427     0.11200
H733        H  0.74593813  0.83117800  0.13140370     0.11300
H734        H  0.81763223  0.85072765  0.16796441     0.11200
H735        H  0.69878312  0.80201150  0.23814453     0.11400
H736        H  0.62733450  0.78200232  0.20143358     0.10200
loop_ 
_geom_bond_atom_site_label_1 
_geom_bond_atom_site_label_2 
_geom_bond_distance 
_geom_bond_site_symmetry_2 
_ccdc_geom_bond_type 
O1           C16   1.261       .  A
O1           Al9   1.906   1_554  S
C2           O12   1.264       .  A
C2            O3   1.261       .  A
C2          C649   1.482       .  S
O3           Al5   1.896       .  S
O4            C6   1.264       .  A
O4           Al5   1.918       .  S
Al5          O13   1.912   1_556  S
Al5          O15   1.898   1_556  S
Al5          O14   1.784       .  S
C6           O19   1.260       .  A
C6          C616   1.478       .  S
O7           C17   1.261       .  A
O7           Al9   1.908       .  S
O8           C21   1.264       .  A
O8          Al18   1.921   1_554  S
Al9          O22   1.890   1_556  S
Al9          O19   1.890       .  S
Al9          O14   1.784       .  S
O10          C17   1.260       .  A
O10         Al18   1.897       .  S
O11          C20   1.261       .  A
O11         Al18   1.897   1_554  S
O12         Al18   1.915       .  S
O13          C20   1.263       .  A
O14         Al18   1.784       .  S
O15          C16   1.260       .  A
C16         C638   1.477       .  S
C17         C671   1.479       .  S
C20         C704   1.481       .  S
C21          O22   1.260       .  A
C21         C715   1.479       .  S
O23          C38   1.260       .  A
O23         Al31   1.895   1_554  S
C24          O34   1.260       .  A
C24          O25   1.263       .  A
C24         C517   1.480       .  S
O25         Al27   1.916       .  S
O26          C28   1.261       .  A
O26         Al27   1.894       .  S
Al27         O35   1.899   1_556  S
Al27         O37   1.914   1_556  S
Al27         O36   1.786       .  S
C28          O41   1.264       .  A
C28         C484   1.480       .  S
O29          C39   1.260       .  A
O29         Al31   1.895       .  S
O30          C43   1.260       .  A
O30         Al40   1.892   1_554  S
Al31         O44   1.917   1_556  S
Al31         O41   1.916       .  S
Al31         O36   1.785       .  S
O32          C39   1.262       .  A
O32         Al40   1.911       .  S
O33          C42   1.262       .  A
O33         Al40   1.909   1_554  S
O34         Al40   1.893       .  S
O35          C42   1.261       .  A
O36         Al40   1.784       .  S
O37          C38   1.263       .  A
C38         C506   1.479       .  S
C39         C539   1.479       .  S
C42         C561   1.480       .  S
C43          O44   1.263       .  A
C43         C583   1.480       .  S
C45          C98   1.491   1_455  S
C45          C46   1.419   1_455  A
C45          C50   1.418   1_565  A
C46          C91   1.493       .  S
C46          C47   1.418   1_565  A
C47          C53   1.492       .  S
C47          C48   1.418   1_655  A
C48          C82   1.492       .  S
C48          C49   1.419       .  A
C49          C73   1.492       .  S
C49          C50   1.418       .  A
C50          C64   1.494       .  S
C51         C495   1.479       .  S
C51          C52   1.402       .  A
C51          C56   1.402       .  A
C52          C53   1.405       .  A
C52          H57   1.083       .  S
C53          C54   1.403   1_545  A
C54          C55   1.401       .  A
C54          H58   1.084       .  S
C55         C451   1.479       .  S
C55          C56   1.402   1_565  A
C56          H59   1.083       .  S
C60         C693   1.482       .  S
C60          C61   1.402       .  A
C60          C65   1.403       .  A
C61          C62   1.402   1_565  A
C61          H66   1.083       .  S
C62         C429   1.481       .  S
C62          C63   1.402       .  A
C63          C64   1.405       .  A
C63          H67   1.084       .  S
C64          C65   1.406   1_545  A
C65          H68   1.083       .  S
C69         C418   1.481       .  S
C69          C70   1.404       .  A
C69          C74   1.402       .  A
C70          C71   1.404       .  A
C70          H75   1.083       .  S
C71         C572   1.480       .  S
C71          C72   1.401       .  A
C72          C73   1.402       .  A
C72          H76   1.084       .  S
C73          C74   1.404       .  A
C74          H77   1.083       .  S
C78         C396   1.481       .  S
C78          C79   1.402   1_655  A
C78          C83   1.403       .  A
C79          C80   1.402       .  A
C79          H84   1.083       .  S
C80         C627   1.477       .  S
C80          C81   1.401       .  A
C81          C82   1.404       .  A
C81          H85   1.084       .  S
C82          C83   1.406   1_455  A
C83          H86   1.084       .  S
C87         C374   1.481       .  S
C87          C88   1.403       .  A
C87          C92   1.402       .  A
C88          C89   1.403       .  A
C88          H93   1.083       .  S
C89         C726   1.481       .  S
C89          C90   1.402       .  A
C90          C91   1.404       .  A
C90          H94   1.083       .  S
C91          C92   1.405       .  A
C92          H95   1.083       .  S
C96         C341   1.480       .  S
C96          C97   1.400       .  A
C96         C101   1.403   1_455  A
C97          C98   1.403   1_455  A
C97         H102   1.084       .  S
C98          C99   1.405       .  A
C99         C100   1.403       .  A
C99         H103   1.083       .  S
C100        C594   1.483       .  S
C100        C101   1.404       .  A
C101        H104   1.083       .  S
O105        C120   1.263       .  A
O105       Al113   1.914       .  S
C106        O116   1.264       .  A
C106        O107   1.260       .  A
C106        C286   1.479       .  S
O107       Al109   1.892       .  S
O108        C110   1.264       .  A
O108       Al109   1.921       .  S
Al109       O117   1.916       .  S
Al109       O119   1.894       .  S
Al109       O118   1.783       .  S
C110        O123   1.260       .  A
C110        C297   1.481       .  S
O111        C121   1.262       .  A
O111       Al113   1.910       .  S
O112        C125   1.264       .  A
O112       Al122   1.920       .  S
Al113       O126   1.888       .  S
Al113       O123   1.894       .  S
Al113       O118   1.782       .  S
O114        C121   1.260       .  A
O114       Al122   1.898       .  S
O115        C124   1.260       .  A
O115       Al122   1.894       .  S
O116       Al122   1.916       .  S
O117        C124   1.263       .  A
O118       Al122   1.784       .  S
O119        C120   1.260       .  A
C120        C440   1.479       .  S
C121        C319   1.479       .  S
C124        C385   1.480       .  S
C125        O126   1.260       .  A
C125        C363   1.479       .  S
O127        C142   1.260       .  A
O127       Al135   1.897       .  S
C128        O138   1.261       .  A
C128        O129   1.262       .  A
C128        C253   1.480       .  S
O129       Al131   1.910       .  S
O130        C132   1.260       .  A
O130       Al131   1.888       .  S
Al131       O139   1.892       .  S
Al131       O141   1.910       .  S
Al131       O140   1.784       .  S
C132        O145   1.264       .  A
C132        C209   1.480       .  S
O133        C143   1.261       .  A
O133       Al135   1.896       .  S
O134        C147   1.261       .  A
O134       Al144   1.895       .  S
Al135       O148   1.912       .  S
Al135       O145   1.919       .  S
Al135       O140   1.786       .  S
O136        C143   1.262       .  A
O136       Al144   1.912       .  S
O137        C146   1.263       .  A
O137       Al144   1.915       .  S
O138       Al144   1.899       .  S
O139        C146   1.260       .  A
O140       Al144   1.786       .  S
O141        C142   1.262       .  A
C142        C407   1.480       .  S
C143        C231   1.480       .  S
C146        C462   1.479       .  S
C147        O148   1.263       .  A
C147        C352   1.479       .  S
C149        C166   1.492   1_565  S
C149        C150   1.420       .  A
C149        C154   1.418   1_665  A
C150        C204   1.495       .  S
C150        C151   1.421       .  A
C151        C195   1.494       .  S
C151        C152   1.421   1_655  A
C152        C159   1.496       .  S
C152        C153   1.420   1_565  A
C153        C186   1.492       .  S
C153        C154   1.417       .  A
C154        C175   1.493       .  S
C155        C660   1.485       .  S
C155        C156   1.404       .  A
C155        C160   1.403       .  A
C156        C157   1.404   1_565  A
C156        H161   1.083       .  S
C157        C308   1.483       .  S
C157        C158   1.403       .  A
C158        C159   1.405   1_545  A
C158        H162   1.083       .  S
C159        C160   1.406       .  A
C160        H163   1.083       .  S
C164        C473   1.482       .  S
C164        C165   1.403       .  A
C164        C169   1.402       .  A
C165        C166   1.407       .  A
C165        H170   1.083       .  S
C166        C167   1.403   1_545  A
C167        C168   1.401       .  A
C167        H171   1.084       .  S
C168        C264   1.479       .  S
C168        C169   1.403   1_565  A
C169        H172   1.083       .  S
C173        C275   1.479       .  S
C173        C174   1.402       .  A
C173        C178   1.403   1_655  A
C174        C175   1.405   1_655  A
C174        H179   1.083       .  S
C175        C176   1.403       .  A
C176        C177   1.402       .  A
C176        H180   1.084       .  S
C177        C605   1.481       .  S
C177        C178   1.403       .  A
C178        H181   1.083       .  S
C182        C220   1.483       .  S
C182        C183   1.404       .  A
C182        C187   1.403       .  A
C183        C184   1.403       .  A
C183        H188   1.083       .  S
C184        C528   1.478       .  S
C184        C185   1.401       .  A
C185        C186   1.404       .  A
C185        H189   1.084       .  S
C186        C187   1.405       .  A
C187        H190   1.084       .  S
C191        C242   1.478       .  S
C191        C192   1.400   1_455  A
C191        C196   1.402       .  A
C192        C193   1.400       .  A
C192        H197   1.084       .  S
C193        C550   1.478       .  S
C193        C194   1.403       .  A
C194        C195   1.407       .  A
C194        H198   1.084       .  S
C195        C196   1.407   1_655  A
C196        H199   1.084       .  S
C200        C330   1.480       .  S
C200        C201   1.402       .  A
C200        C205   1.402       .  A
C201        C202   1.403       .  A
C201        H206   1.083       .  S
C202        C682   1.483       .  S
C202        C203   1.404       .  A
C203        C204   1.405       .  A
C203        H207   1.083       .  S
C204        C205   1.404       .  A
C205        H208   1.083       .  S
C209        C210   1.407       .  A
C209        C214   1.407       .  A
C210        C211   1.399       .  A
C210        H223   1.083       .  S
C211        C212   1.400       .  A
C211        H224   1.083       .  S
C212        C213   1.399       .  A
C212        C215   1.439       .  S
C213        C214   1.397       .  A
C213        H225   1.083       .  S
C214        H226   1.083       .  S
C215        C216   1.206       .  T
C216        C217   1.439       .  S
C217        C218   1.399       .  A
C217        C222   1.400       .  A
C218        C219   1.397       .  A
C218        H227   1.084       .  S
C219        C220   1.407       .  A
C219        H228   1.083       .  S
C220        C221   1.407       .  A
C221        C222   1.399       .  A
C221        H229   1.083       .  S
C222        H230   1.083       .  S
C231        C232   1.407       .  A
C231        C236   1.408       .  A
C232        C233   1.399       .  A
C232        H245   1.083       .  S
C233        C234   1.400       .  A
C233        H246   1.083       .  S
C234        C235   1.398       .  A
C234        C237   1.438       .  S
C235        C236   1.397       .  A
C235        H247   1.084       .  S
C236        H248   1.083       .  S
C237        C238   1.205       .  T
C238        C239   1.438       .  S
C239        C240   1.401       .  A
C239        C244   1.398       .  A
C240        C241   1.400       .  A
C240        H249   1.083       .  S
C241        C242   1.405       .  A
C241        H250   1.083       .  S
C242        C243   1.406       .  A
C243        C244   1.395       .  A
C243        H251   1.083       .  S
C244        H252   1.084       .  S
C253        C254   1.406       .  A
C253        C258   1.408       .  A
C254        C255   1.399       .  A
C254        H267   1.083       .  S
C255        C256   1.400       .  A
C255        H268   1.083       .  S
C256        C257   1.398       .  A
C256        C259   1.438       .  S
C257        C258   1.396       .  A
C257        H269   1.084       .  S
C258        H270   1.083       .  S
C259        C260   1.205       .  T
C260        C261   1.437       .  S
C261        C262   1.401       .  A
C261        C266   1.399       .  A
C262        C263   1.399       .  A
C262        H271   1.083       .  S
C263        C264   1.407       .  A
C263        H272   1.083       .  S
C264        C265   1.406       .  A
C265        C266   1.396       .  A
C265        H273   1.083   1_565  S
C266        H274   1.083       .  S
C275        C276   1.406       .  A
C275        C280   1.405       .  A
C276        C277   1.396       .  A
C276        H289   1.083       .  S
C277        C278   1.399       .  A
C277        H290   1.084       .  S
C278        C279   1.401       .  A
C278        C281   1.438       .  S
C279        C280   1.399       .  A
C279        H291   1.083       .  S
C280        H292   1.083       .  S
C281        C282   1.205       .  T
C282        C283   1.438       .  S
C283        C284   1.399       .  A
C283        C288   1.400       .  A
C284        C285   1.397       .  A
C284        H293   1.084       .  S
C285        C286   1.407       .  A
C285        H294   1.083       .  S
C286        C287   1.407       .  A
C287        C288   1.399       .  A
C287        H295   1.083       .  S
C288        H296   1.083       .  S
C297        C298   1.408       .  A
C297        C302   1.407       .  A
C298        C299   1.400       .  A
C298        H311   1.083       .  S
C299        C300   1.400       .  A
C299        H312   1.083       .  S
C300        C301   1.399       .  A
C300        C303   1.440       .  S
C301        C302   1.397       .  A
C301        H313   1.084       .  S
C302        H314   1.083       .  S
C303        C304   1.206       .  T
C304        C305   1.440       .  S
C305        C306   1.401       .  A
C305        C310   1.399       .  A
C306        C307   1.399       .  A
C306        H315   1.083       .  S
C307        C308   1.406       .  A
C307        H316   1.083       .  S
C308        C309   1.407       .  A
C309        C310   1.397       .  A
C309        H317   1.083       .  S
C310        H318   1.084       .  S
C319        C320   1.407       .  A
C319        C324   1.407       .  A
C320        C321   1.395       .  A
C320        H333   1.083       .  S
C321        C322   1.398       .  A
C321        H334   1.084       .  S
C322        C323   1.400       .  A
C322        C325   1.437       .  S
C323        C324   1.400       .  A
C323        H335   1.083       .  S
C324        H336   1.083       .  S
C325        C326   1.205       .  T
C326        C327   1.437       .  S
C327        C328   1.399       .  A
C327        C332   1.400       .  A
C328        C329   1.397       .  A
C328        H337   1.084       .  S
C329        C330   1.407       .  A
C329        H338   1.083       .  S
C330        C331   1.406       .  A
C331        C332   1.398       .  A
C331        H339   1.083       .  S
C332        H340   1.083       .  S
C341        C342   1.405       .  A
C341        C346   1.407       .  A
C342        C343   1.396       .  A
C342        H355   1.083   1_455  S
C343        C344   1.399       .  A
C343        H356   1.084       .  S
C344        C345   1.400       .  A
C344        C347   1.438       .  S
C345        C346   1.398       .  A
C345        H357   1.083       .  S
C346        H358   1.083       .  S
C347        C348   1.205       .  T
C348        C349   1.438       .  S
C349        C350   1.400       .  A
C349        C354   1.399       .  A
C350        C351   1.399       .  A
C350        H359   1.083       .  S
C351        C352   1.407       .  A
C351        H360   1.083       .  S
C352        C353   1.407       .  A
C353        C354   1.397       .  A
C353        H361   1.083       .  S
C354        H362   1.084       .  S
C363        C364   1.407       .  A
C363        C368   1.407       .  A
C364        C365   1.397       .  A
C364        H377   1.083       .  S
C365        C366   1.399       .  A
C365        H378   1.083       .  S
C366        C367   1.399       .  A
C366        C369   1.438       .  S
C367        C368   1.398       .  A
C367        H379   1.083       .  S
C368        H380   1.083       .  S
C369        C370   1.205       .  T
C370        C371   1.438       .  S
C371        C372   1.400       .  A
C371        C376   1.400       .  A
C372        C373   1.398       .  A
C372        H381   1.084       .  S
C373        C374   1.407       .  A
C373        H382   1.082       .  S
C374        C375   1.406       .  A
C375        C376   1.397       .  A
C375        H383   1.083       .  S
C376        H384   1.084       .  S
C385        C386   1.408       .  A
C385        C390   1.407       .  A
C386        C387   1.398       .  A
C386        H399   1.083       .  S
C387        C388   1.399       .  A
C387        H400   1.084       .  S
C388        C389   1.400       .  A
C388        C391   1.439       .  S
C389        C390   1.399       .  A
C389        H401   1.083       .  S
C390        H402   1.083       .  S
C391        C392   1.205       .  T
C392        C393   1.438       .  S
C393        C394   1.399       .  A
C393        C398   1.401       .  A
C394        C395   1.396       .  A
C394        H403   1.084       .  S
C395        C396   1.406       .  A
C395        H404   1.083   1_655  S
C396        C397   1.407       .  A
C397        C398   1.399       .  A
C397        H405   1.083       .  S
C398        H406   1.084       .  S
C407        C408   1.407       .  A
C407        C412   1.407       .  A
C408        C409   1.396       .  A
C408        H421   1.083       .  S
C409        C410   1.398       .  A
C409        H422   1.084       .  S
C410        C411   1.400       .  A
C410        C413   1.438       .  S
C411        C412   1.400       .  A
C411        H423   1.083       .  S
C412        H424   1.083       .  S
C413        C414   1.205       .  T
C414        C415   1.438       .  S
C415        C416   1.400       .  A
C415        C420   1.399       .  A
C416        C417   1.398       .  A
C416        H425   1.083       .  S
C417        C418   1.406       .  A
C417        H426   1.083       .  S
C418        C419   1.407       .  A
C419        C420   1.397       .  A
C419        H427   1.083       .  S
C420        H428   1.084       .  S
C429        C430   1.407       .  A
C429        C434   1.407       .  A
C430        C431   1.399       .  A
C430        H443   1.083       .  S
C431        C432   1.401       .  A
C431        H444   1.083       .  S
C432        C433   1.399       .  A
C432        C435   1.438       .  S
C433        C434   1.396       .  A
C433        H445   1.084       .  S
C434        H446   1.083   1_545  S
C435        C436   1.205       .  T
C436        C437   1.438       .  S
C437        C438   1.400       .  A
C437        C442   1.398       .  A
C438        C439   1.399       .  A
C438        H447   1.083       .  S
C439        C440   1.407       .  A
C439        H448   1.083       .  S
C440        C441   1.408       .  A
C441        C442   1.397       .  A
C441        H449   1.083       .  S
C442        H450   1.084       .  S
C451        C452   1.407       .  A
C451        C456   1.405       .  A
C452        C453   1.397       .  A
C452        H465   1.082       .  S
C453        C454   1.400       .  A
C453        H466   1.084       .  S
C454        C455   1.400       .  A
C454        C457   1.437       .  S
C455        C456   1.396       .  A
C455        H467   1.084       .  S
C456        H468   1.083   1_565  S
C457        C458   1.204       .  T
C458        C459   1.437       .  S
C459        C460   1.398       .  A
C459        C464   1.400       .  A
C460        C461   1.396       .  A
C460        H469   1.084       .  S
C461        C462   1.407       .  A
C461        H470   1.083       .  S
C462        C463   1.408       .  A
C463        C464   1.399       .  A
C463        H471   1.083       .  S
C464        H472   1.083       .  S
C473        C474   1.406       .  A
C473        C478   1.407       .  A
C474        C475   1.400       .  A
C474        H487   1.083       .  S
C475        C476   1.401       .  A
C475        H488   1.083       .  S
C476        C477   1.399       .  A
C476        C479   1.440       .  S
C477        C478   1.397       .  A
C477        H489   1.084       .  S
C478        H490   1.083       .  S
C479        C480   1.206       .  T
C480        C481   1.440       .  S
C481        C482   1.400       .  A
C481        C486   1.399       .  A
C482        C483   1.399       .  A
C482        H491   1.083       .  S
C483        C484   1.407       .  A
C483        H492   1.083       .  S
C484        C485   1.408       .  A
C485        C486   1.398       .  A
C485        H493   1.083       .  S
C486        H494   1.084       .  S
C495        C496   1.406       .  A
C495        C500   1.405       .  A
C496        C497   1.396       .  A
C496        H509   1.083       .  S
C497        C498   1.399       .  A
C497        H510   1.084       .  S
C498        C499   1.401       .  A
C498        C501   1.438       .  S
C499        C500   1.398       .  A
C499        H511   1.083       .  S
C500        H512   1.083       .  S
C501        C502   1.205       .  T
C502        C503   1.438       .  S
C503        C504   1.399       .  A
C503        C508   1.400       .  A
C504        C505   1.397       .  A
C504        H513   1.084       .  S
C505        C506   1.407       .  A
C505        H514   1.083       .  S
C506        C507   1.407       .  A
C507        C508   1.399       .  A
C507        H515   1.083       .  S
C508        H516   1.083       .  S
C517        C518   1.407       .  A
C517        C522   1.408       .  A
C518        C519   1.398       .  A
C518        H531   1.083       .  S
C519        C520   1.399       .  A
C519        H532   1.083       .  S
C520        C521   1.399       .  A
C520        C523   1.439       .  S
C521        C522   1.398       .  A
C521        H533   1.084       .  S
C522        H534   1.083       .  S
C523        C524   1.205       .  T
C524        C525   1.439       .  S
C525        C526   1.401       .  A
C525        C530   1.399       .  A
C526        C527   1.399       .  A
C526        H535   1.083       .  S
C527        C528   1.405       .  A
C527        H536   1.083       .  S
C528        C529   1.405       .  A
C529        C530   1.396       .  A
C529        H537   1.083       .  S
C530        H538   1.084       .  S
C539        C540   1.407       .  A
C539        C544   1.408       .  A
C540        C541   1.399       .  A
C540        H553   1.083       .  S
C541        C542   1.400       .  A
C541        H554   1.083       .  S
C542        C543   1.398       .  A
C542        C545   1.438       .  S
C543        C544   1.396       .  A
C543        H555   1.084       .  S
C544        H556   1.083       .  S
C545        C546   1.205       .  T
C546        C547   1.438       .  S
C547        C548   1.402       .  A
C547        C552   1.398       .  A
C548        C549   1.400       .  A
C548        H557   1.083       .  S
C549        C550   1.405       .  A
C549        H558   1.083       .  S
C550        C551   1.406       .  A
C551        C552   1.395       .  A
C551        H559   1.083       .  S
C552        H560   1.084       .  S
C561        C562   1.407       .  A
C561        C566   1.408       .  A
C562        C563   1.400       .  A
C562        H575   1.083       .  S
C563        C564   1.400       .  A
C563        H576   1.083       .  S
C564        C565   1.398       .  A
C564        C567   1.438       .  S
C565        C566   1.395       .  A
C565        H577   1.084       .  S
C566        H578   1.083       .  S
C567        C568   1.205       .  T
C568        C569   1.437       .  S
C569        C570   1.400       .  A
C569        C574   1.399       .  A
C570        C571   1.397       .  A
C570        H579   1.084       .  S
C571        C572   1.405       .  A
C571        H580   1.083       .  S
C572        C573   1.408       .  A
C573        C574   1.397       .  A
C573        H581   1.083       .  S
C574        H582   1.084       .  S
C583        C584   1.407       .  A
C583        C588   1.407       .  A
C584        C585   1.399       .  A
C584        H597   1.083       .  S
C585        C586   1.399       .  A
C585        H598   1.083       .  S
C586        C587   1.399       .  A
C586        C589   1.438       .  S
C587        C588   1.397       .  A
C587        H599   1.084       .  S
C588        H600   1.083       .  S
C589        C590   1.205       .  T
C590        C591   1.438       .  S
C591        C592   1.399       .  A
C591        C596   1.400       .  A
C592        C593   1.397       .  A
C592        H601   1.084       .  S
C593        C594   1.407       .  A
C593        H602   1.083       .  S
C594        C595   1.406       .  A
C595        C596   1.399       .  A
C595        H603   1.083       .  S
C596        H604   1.083       .  S
C605        C606   1.407       .  A
C605        C610   1.406       .  A
C606        C607   1.398       .  A
C606        H619   1.083       .  S
C607        C608   1.400       .  A
C607        H620   1.083       .  S
C608        C609   1.399       .  A
C608        C611   1.437       .  S
C609        C610   1.396       .  A
C609        H621   1.084       .  S
C610        H622   1.083   1_455  S
C611        C612   1.205       .  T
C612        C613   1.437       .  S
C613        C614   1.399       .  A
C613        C618   1.400       .  A
C614        C615   1.396       .  A
C614        H623   1.084       .  S
C615        C616   1.406       .  A
C615        H624   1.083       .  S
C616        C617   1.408       .  A
C617        C618   1.399       .  A
C617        H625   1.083       .  S
C618        H626   1.083       .  S
C627        C628   1.405       .  A
C627        C632   1.406       .  A
C628        C629   1.395       .  A
C628        H641   1.083   1_455  S
C629        C630   1.398       .  A
C629        H642   1.084       .  S
C630        C631   1.401       .  A
C630        C633   1.435       .  S
C631        C632   1.398       .  A
C631        H643   1.083       .  S
C632        H644   1.083       .  S
C633        C634   1.203       .  T
C634        C635   1.435       .  S
C635        C636   1.397       .  A
C635        C640   1.400       .  A
C636        C637   1.396       .  A
C636        H645   1.084       .  S
C637        C638   1.408       .  A
C637        H646   1.083       .  S
C638        C639   1.406       .  A
C639        C640   1.398       .  A
C639        H647   1.083       .  S
C640        H648   1.083       .  S
C649        C650   1.408       .  A
C649        C654   1.407       .  A
C650        C651   1.401       .  A
C650        H663   1.083       .  S
C651        C652   1.401       .  A
C651        H664   1.083       .  S
C652        C653   1.399       .  A
C652        C655   1.441       .  S
C653        C654   1.397       .  A
C653        H665   1.084       .  S
C654        H666   1.083       .  S
C655        C656   1.207       .  T
C656        C657   1.441       .  S
C657        C658   1.401       .  A
C657        C662   1.399       .  A
C658        C659   1.400       .  A
C658        H667   1.083       .  S
C659        C660   1.407       .  A
C659        H668   1.083       .  S
C660        C661   1.407       .  A
C661        C662   1.398       .  A
C661        H669   1.083       .  S
C662        H670   1.084       .  S
C671        C672   1.407       .  A
C671        C676   1.407       .  A
C672        C673   1.399       .  A
C672        H685   1.083       .  S
C673        C674   1.400       .  A
C673        H686   1.083       .  S
C674        C675   1.398       .  A
C674        C677   1.437       .  S
C675        C676   1.396       .  A
C675        H687   1.084       .  S
C676        H688   1.083       .  S
C677        C678   1.204       .  T
C678        C679   1.437       .  S
C679        C680   1.400       .  A
C679        C684   1.398       .  A
C680        C681   1.398       .  A
C680        H689   1.083       .  S
C681        C682   1.406       .  A
C681        H690   1.083       .  S
C682        C683   1.408       .  A
C683        C684   1.397       .  A
C683        H691   1.083       .  S
C684        H692   1.084       .  S
C693        C694   1.406       .  A
C693        C698   1.407       .  A
C694        C695   1.401       .  A
C694        H707   1.083       .  S
C695        C696   1.402       .  A
C695        H708   1.083       .  S
C696        C697   1.398       .  A
C696        C699   1.439       .  S
C697        C698   1.395       .  A
C697        H709   1.084       .  S
C698        H710   1.083       .  S
C699        C700   1.206       .  T
C700        C701   1.439       .  S
C701        C702   1.399       .  A
C701        C706   1.400       .  A
C702        C703   1.398       .  A
C702        H711   1.084       .  S
C703        C704   1.408       .  A
C703        H712   1.083       .  S
C704        C705   1.407       .  A
C705        C706   1.399       .  A
C705        H713   1.083       .  S
C706        H714   1.083       .  S
C715        C716   1.407       .  A
C715        C720   1.407       .  A
C716        C717   1.398       .  A
C716        H729   1.083       .  S
C717        C718   1.399       .  A
C717        H730   1.083       .  S
C718        C719   1.400       .  A
C718        C721   1.439       .  S
C719        C720   1.398       .  A
C719        H731   1.083       .  S
C720        H732   1.083       .  S
C721        C722   1.205       .  T
C722        C723   1.439       .  S
C723        C724   1.400       .  A
C723        C728   1.399       .  A
C724        C725   1.399       .  A
C724        H733   1.083       .  S
C725        C726   1.406       .  A
C725        H734   1.083       .  S
C726        C727   1.406       .  A
C727        C728   1.397       .  A
C727        H735   1.083       .  S
C728        H736   1.084       .  S
