geometry optimzed in LAMMPS
_audit_creation_date              2020-11-30 
_audit_creation_method            'lammps2cif' 
_symmetry_space_group_name_H-M    'P1' 
_symmetry_Int_Tables_number       1 
_symmetry_cell_setting            triclinic 
loop_ 
_symmetry_equiv_pos_as_xyz 
  x,y,z 
_cell_length_a                    53.25662318062737 
_cell_length_b                    53.51114347504836 
_cell_length_c                    30.86395051577036 
_cell_angle_alpha                 90.64868368013964 
_cell_angle_beta                  89.96234770898091 
_cell_angle_gamma                 121.34121181664763 
loop_ 
_atom_site_label 
_atom_site_type_symbol 
_atom_site_fract_x 
_atom_site_fract_y 
_atom_site_fract_z 
_atom_site_charge 
C1          C  0.40629762  0.08748744  0.24853709     0.03320
C2          C  0.39727462  0.09464673  0.28735821    -0.12830
C3          C  0.38458065  0.11194315  0.28677639     0.00820
C4          C  0.37919245  0.12074611  0.24713375    -0.11360
C5          C  0.38686649  0.11285009  0.20823273     0.03310
C6          C  0.40109825  0.09702752  0.20898335    -0.10780
H7          H  0.40057058  0.08733069  0.31824182     0.08900
H8          H  0.36884022  0.13363542  0.24653661     0.06430
H9          H  0.40870702  0.09299732  0.17871357     0.06280
C10         C  0.40628517  0.35443284  0.25356301     0.03320
C11         C  0.39580989  0.33835603  0.21433643    -0.12830
C12         C  0.38239433  0.30783602  0.21379232     0.00820
C13         C  0.37728461  0.29301163  0.25282573    -0.11360
C14         C  0.38598910  0.30828924  0.29239432     0.03310
C15         C  0.40095092  0.33896611  0.29259765    -0.10780
H16         H  0.39861006  0.34940220  0.18398093     0.08900
H17         H  0.36642168  0.26934494  0.25232080     0.06430
H18         H  0.40922682  0.35064573  0.32309758     0.06280
O19         O  0.26930036  0.16568336  0.03383887    -0.85160
O20         O  0.32111858  0.21556094  0.05732119    -0.82210
C21         C  0.34833542  0.23232983  0.06320798     0.98300
O22         O  0.36664956  0.23126033  0.03810773    -0.82240
O23         O  0.36383432  0.17989613  0.05540566    -0.84890
C24         C  0.35328781  0.15282967  0.05899538     1.02830
O25         O  0.33367472  0.13500091  0.03261202    -0.77650
O26         O  0.28474081  0.13672750  0.05319437    -0.77840
C27         C  0.26784120  0.14628330  0.05882228     1.02780
O28         O  0.28649592  0.18030425  0.44432134    -0.85160
O29         O  0.33496545  0.23209372  0.46817158    -0.82220
C30         C  0.35393830  0.23358471  0.44178377     0.98320
O31         O  0.36437796  0.21744910  0.44660570    -0.82250
O32         O  0.36707089  0.16922002  0.46415565    -0.84860
C33         C  0.34901896  0.14966343  0.43796323     1.02790
O34         O  0.32178564  0.13855663  0.44253468    -0.77680
O35         O  0.26987867  0.13497755  0.46260965    -0.77820
C36         C  0.26968907  0.15337975  0.43723269     1.02750
Cr37       Cr  0.30437407  0.19687151  0.50091897     1.93740
Cr38       Cr  0.36255133  0.19799681  0.50105244     1.93210
Cr39       Cr  0.30398805  0.13929400  0.49793006     1.39100
O40         O  0.32368105  0.17805960  0.50017940    -1.22910
C41         C  0.14606970  0.09084392  0.24855783     0.03320
C42         C  0.16286193  0.10171575  0.28700679    -0.12830
C43         C  0.19352588  0.11499184  0.28628265     0.00820
C44         C  0.20768159  0.11909957  0.24648512    -0.11360
C45         C  0.19164306  0.10984046  0.20768826     0.03310
C46         C  0.16087949  0.09523696  0.20883674    -0.10780
H47         H  0.15229896  0.10036571  0.31757159     0.08900
H48         H  0.23143261  0.12976318  0.24562397     0.06430
H49         H  0.14865510  0.08690551  0.17879285     0.06280
O50         O  0.20496200  0.35982901  0.03495982    -0.85160
O51         O  0.15262293  0.31071643  0.05546507    -0.82210
C52         C  0.12541073  0.29333154  0.05974269     0.98300
O53         O  0.10751558  0.29382179  0.03304944    -0.82240
O54         O  0.11036528  0.34509364  0.05271028    -0.84890
C55         C  0.12074079  0.37202963  0.05822303     1.02830
O56         O  0.14037917  0.39021088  0.03281034    -0.77650
O57         O  0.18886691  0.38818161  0.05574559    -0.77840
C58         C  0.20589875  0.37879181  0.06110310     1.02780
O59         O  0.18912908  0.34558108  0.44461438    -0.85160
O60         O  0.13999649  0.29367623  0.46531748    -0.82220
C61         C  0.12119838  0.29204405  0.43837924     0.98320
O62         O  0.11137820  0.30881768  0.44239396    -0.82250
O63         O  0.10886089  0.35737957  0.46187629    -0.84860
C64         C  0.12763567  0.37644185  0.43639676     1.02790
O65         O  0.15459540  0.38707854  0.44313880    -0.77680
O66         O  0.20571249  0.39069099  0.46595536    -0.77820
C67         C  0.20637202  0.37260506  0.43969418     1.02750
Cr68       Cr  0.17030044  0.32882513  0.50004208     1.93740
Cr69       Cr  0.11234340  0.32773679  0.49761561     1.93210
Cr70       Cr  0.17092314  0.38622801  0.49943442     1.39100
O71         O  0.15115419  0.34759291  0.49907853    -1.22910
C72         C  0.06700930  0.43717667  0.25090072     0.03320
C73         C  0.07157134  0.42709559  0.21082380    -0.12830
C74         C  0.08648874  0.41192664  0.20893912     0.00820
C75         C  0.09573137  0.40545248  0.24730132    -0.11360
C76         C  0.09125352  0.41488376  0.28739154     0.03310
C77         C  0.07795946  0.43163944  0.28894940    -0.10780
H78         H  0.06303544  0.43029316  0.18095768     0.08900
H79         H  0.10646785  0.39292467  0.24591696     0.06430
H80         H  0.07669064  0.44055064  0.31990657     0.06280
C81         C  0.32832240  0.43385422  0.25134465     0.03320
C82         C  0.31310059  0.42987055  0.21202995    -0.12830
C83         C  0.28231076  0.41515225  0.21106609     0.00820
C84         C  0.26669823  0.40562198  0.24986621    -0.11360
C85         C  0.28135652  0.40992421  0.28932479     0.03310
C86         C  0.31204457  0.42371452  0.28995560    -0.10780
H87         H  0.32500429  0.43869610  0.18221410     0.08900
H88         H  0.24292305  0.39472588  0.24935091     0.06430
H89         H  0.32304255  0.42607142  0.32056680     0.06280
C90         C  0.06323221  0.17091862  0.24635709     0.03320
C91         C  0.06865872  0.18631092  0.28601431    -0.12830
C92         C  0.08331950  0.21685250  0.28703537     0.00820
C93         C  0.09194051  0.23232697  0.24834537    -0.11360
C94         C  0.08695286  0.21763429  0.20854552     0.03310
C95         C  0.07287222  0.18698835  0.20763279    -0.10780
H96         H  0.06130180  0.17469219  0.31629554     0.08900
H97         H  0.10289001  0.25599124  0.24930788     0.06430
H98         H  0.07035249  0.17599372  0.17688827     0.06280
C99         C  0.47155590  0.02775832  0.25406179     0.02470
C100        C  0.45601628  0.49675810  0.25573682     0.02470
C101        C  0.47154923  0.48186069  0.25535650     0.02470
C102        C  0.00262781  0.49796242  0.25302855     0.02470
C103        C  0.01825576  0.02894843  0.25163004     0.02470
C104        C  0.00273136  0.04390311  0.25217525     0.02470
C105        C  0.01907077  0.07652442  0.25006694    -0.05280
C106        C  0.01389350  0.09010578  0.21547823    -0.32710
C107        C  0.02788130  0.12062832  0.21364622     0.36540
C108        C  0.04833357  0.13832499  0.24617743    -0.05640
C109        C  0.05387235  0.12453301  0.28026544    -0.32610
C110        C  0.03906078  0.09401858  0.28286914     0.36450
H111        H  0.49842818  0.07688945  0.19011288     0.16820
O112        O  0.01990966  0.13273028  0.18153791    -0.60100
H113        H  0.06953343  0.13738428  0.30559557     0.16830
O114        O  0.04257951  0.08138134  0.31904145    -0.60200
H115        H  0.06397444  0.08921905  0.32172676     0.43830
H116        H  0.52744002  0.12910588  0.15424060     0.43780
C117        C  0.36107827  0.44918918  0.25252883    -0.05280
C118        C  0.37664819  0.46771646  0.28788794    -0.32710
C119        C  0.40737396  0.48251960  0.29005502     0.36540
C120        C  0.42322671  0.47978330  0.25578530    -0.05640
C121        C  0.40788654  0.46114712  0.22068356    -0.32610
C122        C  0.37712865  0.44549280  0.21917238     0.36450
H123        H  0.36507712  0.47102195  0.31403500     0.16820
O124        O  0.42181543  0.99876639  0.32638531    -0.60100
H125        H  0.41987324  0.45857542  0.19437427     0.16830
O126        O  0.36302272  0.42548277  0.18622878    -0.60200
H127        H  0.36776110  0.43709752  0.15937631     0.43830
H128        H  0.41562014  0.01320770  0.33020213     0.43780
C129        C  0.05076054  0.45315540  0.25255850    -0.05280
C130        C  0.05224552  0.47026612  0.21710265    -0.32710
C131        C  0.03585321  0.48385459  0.21621611     0.36540
C132        C  0.01900225  0.48229628  0.25228564    -0.05640
C133        C  0.01785276  0.46594991  0.28814023    -0.32610
C134        C  0.03280857  0.45085584  0.28814332     0.36450
H135        H  0.06605385  0.47317287  0.18957094     0.16820
O136        O  0.53650813  0.49873463  0.17992742    -0.60100
H137        H  0.00479360  0.96445995  0.31602645     0.16830
O138        O  0.02887422  0.43335930  0.32273264    -0.60200
H139        H  0.01249187  0.91362894  0.31411987     0.43830
H140        H  0.52066812  0.48387854  0.16082902     0.43780
C141        C  0.11504017  0.27225965  0.09604487    -0.05280
C142        C  0.13539483  0.27562380  0.12812157    -0.32710
C143        C  0.12661094  0.25731741  0.16398031     0.36540
C144        C  0.09705639  0.23485896  0.16832503    -0.05640
C145        C  0.07679842  0.23052404  0.13565124    -0.32610
C146        C  0.08555419  0.24901893  0.09969850     0.36450
H147        H  0.15827883  0.29291204  0.12600413     0.16820
O148        O  0.14717176  0.26120600  0.19442307    -0.60100
H149        H  0.05394834  0.21330231  0.13869300     0.16830
O150        O  0.06498801  0.24443261  0.06890351    -0.60200
H151        H  0.06577029  0.23104738  0.04719224     0.43830
H152        H  0.15175302  0.27910288  0.21098094     0.43780
C153        C  0.11005785  0.27033890  0.40214401    -0.05280
C154        C  0.08662539  0.26704652  0.37647126    -0.32710
C155        C  0.07703609  0.24879589  0.33982913     0.36540
C156        C  0.09053370  0.23310065  0.32848711    -0.05640
C157        C  0.11301738  0.23519957  0.35480702    -0.32610
C158        C  0.12284721  0.25364977  0.39145539     0.36450
H159        H  0.07600463  0.27915352  0.38416190     0.16820
O160        O  0.05443956  0.24640750  0.31517573    -0.60100
H161        H  0.12369751  0.22331284  0.34598615     0.16830
O162        O  0.14585725  0.25621531  0.41516684    -0.60200
H163        H  0.13670035  0.24034296  0.43672681     0.43830
H164        H  0.06374706  0.26335317  0.29544470     0.43780
C165        C  0.22730476  0.38257105  0.40300863    -0.05280
C166        C  0.22335864  0.36217040  0.37046257    -0.32710
C167        C  0.24139928  0.37071002  0.33403965     0.36540
C168        C  0.26417168  0.40000944  0.32971748    -0.05640
C169        C  0.26904106  0.42029298  0.36279098    -0.32610
C170        C  0.25079200  0.41181050  0.39924155     0.36450
H171        H  0.20577901  0.33948638  0.37262753     0.16820
O172        O  0.23694843  0.35017889  0.30303078    -0.60100
H173        H  0.28650542  0.44295992  0.35970690     0.16830
O174        O  0.25585850  0.43239361  0.43043427    -0.60200
H175        H  0.26926834  0.43138303  0.45166245     0.43830
H176        H  0.21899127  0.34599169  0.28703411     0.43780
C177        C  0.26579587  0.40917385  0.16989729    -0.05280
C178        C  0.24440234  0.41682120  0.16657458    -0.32710
C179        C  0.22522690  0.40762172  0.13111589     0.36540
C180        C  0.22722651  0.39038967  0.09775102    -0.05640
C181        C  0.24949723  0.38374095  0.10034062    -0.32610
C182        C  0.26880545  0.39315715  0.13591792     0.36450
H183        H  0.24197075  0.42930933  0.19236833     0.16820
O184        O  0.20419825  0.41510831  0.13013315    -0.60100
H185        H  0.25165485  0.37073071  0.07514514     0.16830
O186        O  0.28917642  0.38487633  0.13859048    -0.60200
H187        H  0.30595693  0.39915556  0.12077048     0.43830
H188        H  0.18721299  0.39941880  0.14606971     0.43780
C189        C  0.10063413  0.40687430  0.32733903    -0.05280
C190        C  0.12959531  0.41323436  0.33069633    -0.32710
C191        C  0.13856692  0.40348605  0.36581240     0.36540
C192        C  0.11840881  0.38704849  0.39890517    -0.05640
C193        C  0.08937530  0.38086406  0.39561265    -0.32610
C194        C  0.08048514  0.39078635  0.36028540     0.36450
H195        H  0.14528208  0.42546880  0.30545841     0.16820
O196        O  0.16708025  0.40988933  0.36692673    -0.60100
H197        H  0.07345853  0.36820517  0.42034020     0.16830
O198        O  0.05168780  0.38325685  0.35699529    -0.60200
H199        H  0.05019248  0.39775143  0.37535552     0.43830
H200        H  0.16675128  0.39333119  0.35158516     0.43780
C201        C  0.10964064  0.38207110  0.09461095    -0.05280
C202        C  0.11978981  0.41200657  0.10031023    -0.32710
C203        C  0.11103800  0.42194445  0.13619543     0.36540
C204        C  0.09215868  0.40192778  0.16727533    -0.05640
C205        C  0.08111202  0.37205107  0.16085861    -0.32610
C206        C  0.08957294  0.36200655  0.12508826     0.36450
H207        H  0.13508112  0.42786921  0.07749391     0.16820
O208        O  0.12257731  0.45139334  0.14211903    -0.60100
H209        H  0.06647103  0.35644383  0.18453505     0.16830
O210        O  0.07841201  0.33249625  0.12092176    -0.60200
H211        H  0.09162407  0.32867549  0.13850501     0.43830
H212        H  0.10926065  0.45575459  0.12590136     0.43780
C213        C  0.11326316  0.07511435  0.24975540    -0.05280
C214        C  0.09764144  0.07825418  0.21555843    -0.32710
C215        C  0.06683801  0.06323923  0.21541180     0.36540
C216        C  0.05107634  0.04557588  0.25067949    -0.05640
C217        C  0.06653154  0.04257662  0.28496820    -0.32610
C218        C  0.09711406  0.05635749  0.28419337     0.36450
H219        H  0.10922057  0.09232111  0.18856643     0.16820
O220        O  0.05219565  0.06459992  0.17975223    -0.60100
H221        H  0.05466362  0.02885067  0.31216603     0.16830
O222        O  0.11074239  0.05044017  0.31668922    -0.60200
H223        H  0.11233984  0.03386355  0.30558511     0.43830
H224        H  0.05917944  0.08560445  0.17599563     0.43780
C225        C  0.24619622  0.13447638  0.09472539    -0.05280
C226        C  0.22517855  0.14274627  0.09914389    -0.32710
C227        C  0.20592963  0.13337978  0.13449062     0.36540
C228        C  0.20773309  0.11576354  0.16636346    -0.05640
C229        C  0.22774818  0.10646872  0.16111249    -0.32610
C230        C  0.24683479  0.11557536  0.12586605     0.36450
H231        H  0.22405820  0.15705982  0.07571273     0.16820
O232        O  0.18688401  0.14322075  0.13917516    -0.60100
H233        H  0.22922718  0.09276756  0.18533185     0.16830
O234        O  0.26642880  0.10628462  0.12292387    -0.60200
H235        H  0.28370148  0.12054629  0.14050878     0.43830
H236        H  0.16938129  0.12955444  0.12150669     0.43780
C237        C  0.21130866  0.12502469  0.32669370    -0.05280
C238        C  0.23616697  0.15334428  0.32868005    -0.32710
C239        C  0.25519002  0.16271765  0.36430282     0.36540
C240        C  0.24948371  0.14371329  0.39935405    -0.05640
C241        C  0.22433639  0.11543960  0.39766489    -0.32610
C242        C  0.20518835  0.10611656  0.36183814     0.36450
H243        H  0.24116233  0.16819557  0.30200452     0.16820
O244        O  0.27964516  0.19039162  0.36393980    -0.60100
H245        H  0.21950932  0.10047316  0.42410192     0.16830
O246        O  0.18151499  0.07798783  0.36039160    -0.60200
H247        H  0.16645344  0.07818035  0.37906878     0.43830
H248        H  0.29536363  0.18810928  0.35084863     0.43780
C249        C  0.42333827  0.38717760  0.25389758    -0.05280
C250        C  0.42058123  0.40271721  0.28890159    -0.32710
C251        C  0.43696376  0.43332786  0.29060457     0.36540
C252        C  0.45515450  0.44918785  0.25573483    -0.05640
C253        C  0.45782259  0.43388188  0.22066999    -0.32610
C254        C  0.44309416  0.40334476  0.22026489     0.36450
H255        H  0.40571795  0.39119991  0.31526778     0.16820
O256        O  0.43488519  0.44754426  0.32640531    -0.60100
H257        H  0.47191290  0.44574651  0.19374564     0.16830
O258        O  0.44898402  0.38974541  0.18735980    -0.60200
H259        H  0.46499427  0.38728284  0.19861197     0.43830
H260        H  0.45194610  0.45193608  0.34493242     0.43780
C261        C  0.38028133  0.29167443  0.33295495    -0.05280
C262        C  0.38855075  0.27079271  0.33548263    -0.32710
C263        C  0.38055221  0.25216429  0.37082270     0.36540
C264        C  0.36407652  0.25429289  0.40508142    -0.05640
C265        C  0.35649891  0.27583286  0.40307328    -0.32610
C266        C  0.36462464  0.29454660  0.36748330     0.36450
H267        H  0.40074255  0.26842526  0.30926429     0.16820
O268        O  0.38845512  0.23151594  0.37081690    -0.60100
H269        H  0.34383634  0.27792022  0.42880218     0.16830
O270        O  0.35557461  0.31427294  0.36548446    -0.60200
H271        H  0.36979246  0.33113872  0.38374597     0.43830
H272        H  0.37233910  0.21432009  0.35521337     0.43780
C273        C  0.35878199  0.25361111  0.09952691    -0.05280
C274        C  0.34539733  0.26991361  0.10783173    -0.32710
C275        C  0.35390809  0.28892447  0.14381403     0.36540
C276        C  0.37540417  0.29106751  0.17264593    -0.05640
C277        C  0.38907490  0.27514430  0.16388107    -0.32610
C278        C  0.38100889  0.25664819  0.12758101     0.36450
H279        H  0.32817699  0.26772904  0.08653900     0.16820
O280        O  0.33997995  0.30399699  0.15187765    -0.60100
H281        H  0.40559632  0.27654163  0.18594947     0.16830
O282        O  0.39381510  0.24037625  0.12117128    -0.60200
H283        H  0.38040544  0.22144336  0.13530655     0.43830
H284        H  0.35061275  0.32194912  0.13429413     0.43780
C285        C  0.42250701  0.07159733  0.24972681    -0.05280
C286        C  0.44232023  0.07720657  0.28394635    -0.32710
C287        C  0.45804191  0.06288600  0.28611968     0.36540
C288        C  0.45495682  0.04324848  0.25290688    -0.05640
C289        C  0.43547484  0.03775679  0.21850679    -0.32610
C290        C  0.41880450  0.05110679  0.21719392     0.36450
H291        H  0.44582351  0.09284024  0.30933176     0.16820
O292        O  0.97515038  0.06689848  0.32188878    -0.60100
H293        H  0.43269847  0.02248353  0.19291153     0.16830
O294        O  0.39772046  0.04259003  0.18550099    -0.60200
H295        H  0.40858609  0.04910072  0.15777143     0.43830
H296        H  0.98940591  0.08825399  0.32425710     0.43780
C297        C  0.36389703  0.14197684  0.09443958    -0.05280
C298        C  0.34723304  0.11240666  0.10644283    -0.32710
C299        C  0.35541433  0.10229796  0.14225500     0.36540
C300        C  0.38031834  0.12185619  0.16693738    -0.05640
C301        C  0.39781450  0.15090466  0.15397594    -0.32610
C302        C  0.38996770  0.16108824  0.11786398     0.36450
H303        H  0.32731514  0.09723836  0.08886218     0.16820
O304        O  0.33812550  0.07362727  0.15421153    -0.60100
H305        H  0.41737609  0.16589656  0.17244959     0.16830
O306        O  0.40829232  0.18945412  0.10491505    -0.60200
H307        H  0.41166446  0.20199724  0.13080762     0.43830
H308        H  0.34701368  0.06335913  0.13998527     0.43780
C309        C  0.35970560  0.13948033  0.40173160    -0.05280
C310        C  0.38393470  0.15985905  0.37748941    -0.32710
C311        C  0.39238244  0.15100711  0.34016470     0.36540
C312        C  0.37716891  0.12130067  0.32752309    -0.05640
C313        C  0.35383604  0.10070776  0.35282935    -0.32610
C314        C  0.34490147  0.10963181  0.38953046     0.36450
H315        H  0.39562050  0.18283606  0.38653971     0.16820
O316        O  0.41561127  0.17147497  0.31626519    -0.60100
H317        H  0.34202008  0.07778832  0.34338997     0.16830
O318        O  0.32151467  0.08904687  0.41305226    -0.60200
H319        H  0.33033926  0.08359461  0.43664404     0.43830
H320        H  0.40721574  0.18008385  0.29707366     0.43780
C321        C  0.40629756  0.08748738  0.74853711     0.03320
C322        C  0.39727460  0.09464670  0.78735824    -0.12830
C323        C  0.38458064  0.11194313  0.78677642     0.00820
C324        C  0.37919241  0.12074607  0.74713377    -0.11360
C325        C  0.38686642  0.11285002  0.70823275     0.03310
C326        C  0.40109818  0.09702743  0.70898336    -0.10780
H327        H  0.40057057  0.08733068  0.81824185     0.08900
H328        H  0.36884020  0.13363540  0.74653664     0.06430
H329        H  0.40870692  0.09299722  0.67871358     0.06280
C330        C  0.40628531  0.35443283  0.75356278     0.03320
C331        C  0.39581000  0.33835598  0.71433624    -0.12830
C332        C  0.38239442  0.30783596  0.71379220     0.00820
C333        C  0.37728475  0.29301162  0.75282564    -0.11360
C334        C  0.38598929  0.30828928  0.79239420     0.03310
C335        C  0.40095111  0.33896614  0.79259745    -0.10780
H336        H  0.39861015  0.34940213  0.68398072     0.08900
H337        H  0.36642180  0.26934493  0.75232077     0.06430
H338        H  0.40922704  0.35064581  0.82309735     0.06280
O339        O  0.26930021  0.16568319  0.53383887    -0.85160
O340        O  0.32111843  0.21556077  0.55732122    -0.82210
C341        C  0.34833527  0.23232966  0.56320798     0.98300
O342        O  0.36664941  0.23126018  0.53810770    -0.82240
O343        O  0.36383421  0.17989601  0.55540563    -0.84890
C344        C  0.35328770  0.15282954  0.55899537     1.02830
O345        O  0.33367461  0.13500077  0.53261203    -0.77650
O346        O  0.28474067  0.13672733  0.55319436    -0.77840
C347        C  0.26784107  0.14628314  0.55882229     1.02780
O348        O  0.28649606  0.18030441  0.94432132    -0.85160
O349        O  0.33496561  0.23209387  0.96817153    -0.82220
C350        C  0.35393848  0.23358486  0.94178377     0.98320
O351        O  0.36437814  0.21744925  0.94660573    -0.82250
O352        O  0.36707101  0.16922014  0.96415567    -0.84860
C353        C  0.34901907  0.14966355  0.93796325     1.02790
O354        O  0.32178576  0.13855677  0.94253469    -0.77680
O355        O  0.26987879  0.13497771  0.96260968    -0.77820
C356        C  0.26968919  0.15337990  0.93723271     1.02750
Cr357      Cr  0.30437422  0.19687168  0.00091895     1.93740
Cr358      Cr  0.36255147  0.19799694  0.00105247     1.93210
Cr359      Cr  0.30398818  0.13929416  0.99793007     1.39100
O360        O  0.32368119  0.17805976  0.00017941    -1.22910
C361        C  0.14606971  0.09084395  0.74855798     0.03320
C362        C  0.16286194  0.10171578  0.78700694    -0.12830
C363        C  0.19352589  0.11499189  0.78628279     0.00820
C364        C  0.20768159  0.11909960  0.74648525    -0.11360
C365        C  0.19164306  0.10984047  0.70768840     0.03310
C366        C  0.16087949  0.09523697  0.70883689    -0.10780
H367        H  0.15229896  0.10036573  0.81757174     0.08900
H368        H  0.23143261  0.12976321  0.74562410     0.06430
H369        H  0.14865509  0.08690551  0.67879301     0.06280
O370        O  0.20496192  0.35982896  0.53495982    -0.85160
O371        O  0.15262290  0.31071631  0.55546507    -0.82210
C372        C  0.12541071  0.29333141  0.55974272     0.98300
O373        O  0.10751553  0.29382163  0.53304949    -0.82240
O374        O  0.11036513  0.34509341  0.55271035    -0.84890
C375        C  0.12074061  0.37202940  0.55822310     1.02830
O376        O  0.14037896  0.39021066  0.53281040    -0.77650
O377        O  0.18886676  0.38818148  0.55574568    -0.77840
C378        C  0.20589865  0.37879173  0.56110313     1.02780
O379        O  0.18912918  0.34558112  0.94461437    -0.85160
O380        O  0.13999652  0.29367633  0.96531749    -0.82220
C381        C  0.12119843  0.29204416  0.93837922     0.98320
O382        O  0.11137829  0.30881783  0.94239390    -0.82250
O383        O  0.10886106  0.35737980  0.96187625    -0.84860
C384        C  0.12763584  0.37644208  0.93639673     1.02790
O385        O  0.15459558  0.38707872  0.94313871    -0.77680
O386        O  0.20571262  0.39069105  0.96595527    -0.77820
C387        C  0.20637214  0.37260509  0.93969414     1.02750
Cr388      Cr  0.17030050  0.32882522  0.00004208     1.93740
Cr389      Cr  0.11234352  0.32773697  0.99761555     1.93210
Cr390      Cr  0.17092331  0.38622816  0.99943434     1.39100
O391        O  0.15115431  0.34759305  0.99907846    -1.22910
C392        C  0.06700894  0.43717634  0.75090052     0.03320
C393        C  0.07157112  0.42709534  0.71082366    -0.12830
C394        C  0.08648864  0.41192651  0.70893913     0.00820
C395        C  0.09573136  0.40545252  0.74730140    -0.11360
C396        C  0.09125341  0.41488378  0.78739158     0.03310
C397        C  0.07795908  0.43163921  0.78894930    -0.10780
H398        H  0.06303523  0.43029290  0.68095751     0.08900
H399        H  0.10646799  0.39292484  0.74591712     0.06430
H400        H  0.07668998  0.44055030  0.81990643     0.06280
C401        C  0.32832242  0.43385414  0.75134448     0.03320
C402        C  0.31310059  0.42987050  0.71202981    -0.12830
C403        C  0.28231075  0.41515219  0.71106599     0.00820
C404        C  0.26669825  0.40562190  0.74986612    -0.11360
C405        C  0.28135656  0.40992411  0.78932468     0.03310
C406        C  0.31204461  0.42371441  0.78995544    -0.10780
H407        H  0.32500427  0.43869607  0.68221395     0.08900
H408        H  0.24292306  0.39472581  0.74935086     0.06430
H409        H  0.32304261  0.42607130  0.82056661     0.06280
C410        C  0.06323220  0.17091859  0.74635723     0.03320
C411        C  0.06865871  0.18631090  0.78601444    -0.12830
C412        C  0.08331950  0.21685249  0.78703549     0.00820
C413        C  0.09194054  0.23232695  0.74834548    -0.11360
C414        C  0.08695291  0.21763426  0.70854564     0.03310
C415        C  0.07287225  0.18698832  0.70763294    -0.10780
H416        H  0.06130176  0.17469218  0.81629567     0.08900
H417        H  0.10289005  0.25599121  0.74930798     0.06430
H418        H  0.07035253  0.17599368  0.67688842     0.06280
C419        C  0.47155589  0.02775830  0.75406175     0.02470
C420        C  0.45601628  0.49675809  0.75573657     0.02470
C421        C  0.47154922  0.48186067  0.75535621     0.02470
C422        C  0.00262781  0.49796239  0.75302837     0.02470
C423        C  0.01825577  0.02894842  0.75163003     0.02470
C424        C  0.00273135  0.04390309  0.75217525     0.02470
C425        C  0.01907076  0.07652440  0.75006699    -0.05280
C426        C  0.01389349  0.09010578  0.71547829    -0.32710
C427        C  0.02788128  0.12062832  0.71364633     0.36540
C428        C  0.04833354  0.13832497  0.74617757    -0.05640
C429        C  0.05387231  0.12453298  0.78026557    -0.32610
C430        C  0.03906074  0.09401854  0.78286922     0.36450
H431        H  0.49842817  0.07688946  0.69011295     0.16820
O432        O  0.01990966  0.13273029  0.68153803    -0.60100
H433        H  0.06953337  0.13738423  0.80559572     0.16830
O434        O  0.04257946  0.08138129  0.81904152    -0.60200
H435        H  0.06397440  0.08921899  0.82172684     0.43830
H436        H  0.52743999  0.12910589  0.65424073     0.43780
C437        C  0.36107828  0.44918913  0.75252862    -0.05280
C438        C  0.37664820  0.46771640  0.78788774    -0.32710
C439        C  0.40737397  0.48251956  0.79005479     0.36540
C440        C  0.42322672  0.47978330  0.75578503    -0.05640
C441        C  0.40788655  0.46114714  0.72068328    -0.32610
C442        C  0.37712866  0.44549279  0.71917212     0.36450
H443        H  0.36507713  0.47102186  0.81403483     0.16820
O444        O  0.42181544  0.99876632  0.82638524    -0.60100
H445        H  0.41987325  0.45857546  0.69437396     0.16830
O446        O  0.36302274  0.42548277  0.68622851    -0.60200
H447        H  0.36776109  0.43709753  0.65937606     0.43830
H448        H  0.41562013  0.01320762  0.83020210     0.43780
C449        C  0.05076015  0.45315499  0.75255815    -0.05280
C450        C  0.05224568  0.47026621  0.71710267    -0.32710
C451        C  0.03585353  0.48385484  0.71621617     0.36540
C452        C  0.01900221  0.48229619  0.75228544    -0.05640
C453        C  0.01785213  0.46594923  0.78813963    -0.32610
C454        C  0.03280770  0.45085494  0.78814253     0.36450
H455        H  0.06605432  0.47317319  0.68957125     0.16820
O456        O  0.53650896  0.49873534  0.67992775    -0.60100
H457        H  0.00479332  0.96445964  0.81602616     0.16830
O458        O  0.02887266  0.43335765  0.82273117    -0.60200
H459        H  0.01249145  0.91362849  0.81411904     0.43830
H460        H  0.52066849  0.48387971  0.66082947     0.43780
C461        C  0.11504018  0.27225953  0.59604491    -0.05280
C462        C  0.13539485  0.27562373  0.62812162    -0.32710
C463        C  0.12661098  0.25731736  0.66398040     0.36540
C464        C  0.09705643  0.23485891  0.66832514    -0.05640
C465        C  0.07679846  0.23052394  0.63565134    -0.32610
C466        C  0.08555421  0.24901880  0.59969856     0.36450
H467        H  0.15827885  0.29291198  0.62600417     0.16820
O468        O  0.14717180  0.26120599  0.69442316    -0.60100
H469        H  0.05394838  0.21330220  0.63869311     0.16830
O470        O  0.06498802  0.24443244  0.56890356    -0.60200
H471        H  0.06577032  0.23104720  0.54719231     0.43830
H472        H  0.15175305  0.27910287  0.71098100     0.43780
C473        C  0.11005787  0.27033898  0.90214404    -0.05280
C474        C  0.08662542  0.26704659  0.87647127    -0.32710
C475        C  0.07703610  0.24879592  0.83982918     0.36540
C476        C  0.09053368  0.23310065  0.82848722    -0.05640
C477        C  0.11301736  0.23519957  0.85480715    -0.32610
C478        C  0.12284720  0.25364981  0.89145549     0.36450
H479        H  0.07600467  0.27915361  0.88416187     0.16820
O480        O  0.05443957  0.24640752  0.81517576    -0.60100
H481        H  0.12369747  0.22331283  0.84598633     0.16830
O482        O  0.14585724  0.25621535  0.91516696    -0.60200
H483        H  0.13670033  0.24034301  0.93672694     0.43830
H484        H  0.06374708  0.26335317  0.79544469     0.43780
C485        C  0.22730488  0.38257103  0.90300858    -0.05280
C486        C  0.22335872  0.36217035  0.87046255    -0.32710
C487        C  0.24139934  0.37070994  0.83403960     0.36540
C488        C  0.26417176  0.40000935  0.82971740    -0.05640
C489        C  0.26904118  0.42029292  0.86279089    -0.32610
C490        C  0.25079214  0.41181046  0.89924148     0.36450
H491        H  0.20577908  0.33948634  0.87262753     0.16820
O492        O  0.23694846  0.35017879  0.80303074    -0.60100
H493        H  0.28650556  0.44295985  0.85970679     0.16830
O494        O  0.25585869  0.43239359  0.93043419    -0.60200
H495        H  0.26926852  0.43138298  0.95166237     0.43830
H496        H  0.21899131  0.34599161  0.78703409     0.43780
C497        C  0.26579585  0.40917381  0.66989721    -0.05280
C498        C  0.24440233  0.41682118  0.66657454    -0.32710
C499        C  0.22522687  0.40762170  0.63111587     0.36540
C500        C  0.22722644  0.39038963  0.59775101    -0.05640
C501        C  0.24949716  0.38374091  0.60034056    -0.32610
C502        C  0.26880540  0.39315710  0.63591782     0.36450
H503        H  0.24197077  0.42930932  0.69236830     0.16820
O504        O  0.20419824  0.41510831  0.63013316    -0.60100
H505        H  0.25165475  0.37073065  0.57514507     0.16830
O506        O  0.28917637  0.38487628  0.63859035    -0.60200
H507        H  0.30595688  0.39915551  0.62077034     0.43830
H508        H  0.18721299  0.39941884  0.64606979     0.43780
C509        C  0.10063414  0.40687450  0.82733914    -0.05280
C510        C  0.12959531  0.41323444  0.83069624    -0.32710
C511        C  0.13856697  0.40348618  0.86581228     0.36540
C512        C  0.11840896  0.38704877  0.89890523    -0.05640
C513        C  0.08937552  0.38086454  0.89561300    -0.32610
C514        C  0.08048528  0.39078680  0.86028578     0.36450
H515        H  0.14528199  0.42546873  0.80545816     0.16820
O516        O  0.16708026  0.40988929  0.86692638    -0.60100
H517        H  0.07345883  0.36820581  0.92034072     0.16830
O518        O  0.05168798  0.38325746  0.85699596    -0.60200
H519        H  0.05019281  0.39775205  0.87535641     0.43830
H520        H  0.16675112  0.39333107  0.85158483     0.43780
C521        C  0.10964048  0.38207087  0.59461104    -0.05280
C522        C  0.11978949  0.41200631  0.60031011    -0.32710
C523        C  0.11103771  0.42194422  0.63619530     0.36540
C524        C  0.09215860  0.40192759  0.66727541    -0.05640
C525        C  0.08111209  0.37205090  0.66085890    -0.32610
C526        C  0.08957296  0.36200635  0.62508854     0.36450
H527        H  0.13508065  0.42786893  0.57749362     0.16820
O528        O  0.12257685  0.45139309  0.64211869    -0.60100
H529        H  0.06647123  0.35644369  0.68453549     0.16830
O530        O  0.07841218  0.33249607  0.62092223    -0.60200
H531        H  0.09162439  0.32867547  0.63850540     0.43830
H532        H  0.10926008  0.45575418  0.62590098     0.43780
C533        C  0.11326317  0.07511438  0.74975554    -0.05280
C534        C  0.09764147  0.07825427  0.71555859    -0.32710
C535        C  0.06683804  0.06323930  0.71541192     0.36540
C536        C  0.05107635  0.04557589  0.75067954    -0.05640
C537        C  0.06653153  0.04257659  0.78496823    -0.32610
C538        C  0.09711406  0.05635749  0.78419346     0.36450
H539        H  0.10922062  0.09232124  0.68856664     0.16820
O540        O  0.05219571  0.06460004  0.67975234    -0.60100
H541        H  0.05466360  0.02885058  0.81216602     0.16830
O542        O  0.11074238  0.05044015  0.81668929    -0.60200
H543        H  0.11233986  0.03386355  0.80558514     0.43830
H544        H  0.05917952  0.08560458  0.67599578     0.43780
C545        C  0.24619612  0.13447625  0.59472544    -0.05280
C546        C  0.22517846  0.14274615  0.59914394    -0.32710
C547        C  0.20592958  0.13337971  0.63449072     0.36540
C548        C  0.20773307  0.11576351  0.66636359    -0.05640
C549        C  0.22774816  0.10646868  0.66111263    -0.32610
C550        C  0.24683472  0.11557527  0.62586614     0.36450
H551        H  0.22405809  0.15705968  0.57571275     0.16820
O552        O  0.18688397  0.14322069  0.63917525    -0.60100
H553        H  0.22922717  0.09276755  0.68533202     0.16830
O554        O  0.26642872  0.10628452  0.62292396    -0.60200
H555        H  0.28370142  0.12054621  0.64050882     0.43830
H556        H  0.16938124  0.12955438  0.62150680     0.43780
C557        C  0.21130868  0.12502478  0.82669383    -0.05280
C558        C  0.23616699  0.15334437  0.82868013    -0.32710
C559        C  0.25519006  0.16271777  0.86430287     0.36540
C560        C  0.24948379  0.14371343  0.89935411    -0.05640
C561        C  0.22433647  0.11543974  0.89766500    -0.32610
C562        C  0.20518840  0.10611667  0.86183828     0.36450
H563        H  0.24116232  0.16819565  0.80200458     0.16820
O564        O  0.27964520  0.19039174  0.86393980    -0.60100
H565        H  0.21950943  0.10047331  0.92410205     0.16830
O566        O  0.18151505  0.07798793  0.86039180    -0.60200
H567        H  0.16645351  0.07818047  0.87906898     0.43830
H568        H  0.29536367  0.18810940  0.85084860     0.43780
C569        C  0.42333835  0.38717758  0.75389729    -0.05280
C570        C  0.42058124  0.40271717  0.78890124    -0.32710
C571        C  0.43696372  0.43332782  0.79060420     0.36540
C572        C  0.45515446  0.44918782  0.75573447    -0.05640
C573        C  0.45782260  0.43388186  0.72066966    -0.32610
C574        C  0.44309423  0.40334474  0.72026459     0.36450
H575        H  0.40571797  0.39119986  0.81526743     0.16820
O576        O  0.43488512  0.44754421  0.82640493    -0.60100
H577        H  0.47191295  0.44574651  0.69374534     0.16830
O578        O  0.44898415  0.38974540  0.68735955    -0.60200
H579        H  0.46499443  0.38728290  0.69861176     0.43830
H580        H  0.45194595  0.45193593  0.84493215     0.43780
C581        C  0.38028155  0.29167451  0.83295486    -0.05280
C582        C  0.38855092  0.27079275  0.83548256    -0.32710
C583        C  0.38055236  0.25216435  0.87082266     0.36540
C584        C  0.36407672  0.25429302  0.90508140    -0.05640
C585        C  0.35649917  0.27583304  0.90307324    -0.32610
C586        C  0.36462491  0.29454675  0.86748324     0.36450
H587        H  0.40074267  0.26842525  0.80926421     0.16820
O588        O  0.38845521  0.23151596  0.87081687    -0.60100
H589        H  0.34383664  0.27792045  0.92880215     0.16830
O590        O  0.35557494  0.31427314  0.86548438    -0.60200
H591        H  0.36979283  0.33113892  0.88374587     0.43830
H592        H  0.37233916  0.21432012  0.85521338     0.43780
C593        C  0.35878186  0.25361094  0.59952691    -0.05280
C594        C  0.34539722  0.26991345  0.60783177    -0.32710
C595        C  0.35390804  0.28892434  0.64381404     0.36540
C596        C  0.37540418  0.29106741  0.67264586    -0.05640
C597        C  0.38907488  0.27514417  0.66388097    -0.32610
C598        C  0.38100880  0.25664803  0.62758095     0.36450
H599        H  0.32817685  0.26772887  0.58653910     0.16820
O600        O  0.33997994  0.30399689  0.65187770    -0.60100
H601        H  0.40559633  0.27654152  0.68594931     0.16830
O602        O  0.39381499  0.24037607  0.62117118    -0.60200
H603        H  0.38040533  0.22144319  0.63530646     0.43830
H604        H  0.35061272  0.32194900  0.63429416     0.43780
C605        C  0.42250696  0.07159726  0.74972683    -0.05280
C606        C  0.44232018  0.07720651  0.78394635    -0.32710
C607        C  0.45804187  0.06288595  0.78611967     0.36540
C608        C  0.45495679  0.04324844  0.75290685    -0.05640
C609        C  0.43547481  0.03775675  0.71850677    -0.32610
C610        C  0.41880445  0.05110673  0.71719392     0.36450
H611        H  0.44582346  0.09284017  0.80933177     0.16820
O612        O  0.97515034  0.06689843  0.82188876    -0.60100
H613        H  0.43269845  0.02248350  0.69291150     0.16830
O614        O  0.39772040  0.04258996  0.68550102    -0.60200
H615        H  0.40858602  0.04910064  0.65777144     0.43830
H616        H  0.98940586  0.08825394  0.82425712     0.43780
C617        C  0.36389693  0.14197672  0.59443958    -0.05280
C618        C  0.34723295  0.11240654  0.60644283    -0.32710
C619        C  0.35541425  0.10229786  0.64225502     0.36540
C620        C  0.38031826  0.12185611  0.66693740    -0.05640
C621        C  0.39781440  0.15090457  0.65397595    -0.32610
C622        C  0.38996760  0.16108814  0.61786398     0.36450
H623        H  0.32731506  0.09723824  0.58886218     0.16820
O624        O  0.33812545  0.07362717  0.65421155    -0.60100
H625        H  0.41737599  0.16589648  0.67244959     0.16830
O626        O  0.40829221  0.18945401  0.60491503    -0.60200
H627        H  0.41166441  0.20199714  0.63080761     0.43830
H628        H  0.34701363  0.06335904  0.63998528     0.43780
C629        C  0.35970570  0.13948042  0.90173163    -0.05280
C630        C  0.38393479  0.15985911  0.87748941    -0.32710
C631        C  0.39238249  0.15100714  0.84016469     0.36540
C632        C  0.37716894  0.12130069  0.82752313    -0.05640
C633        C  0.35383609  0.10070781  0.85282943    -0.32610
C634        C  0.34490154  0.10963189  0.88953054     0.36450
H635        H  0.39562060  0.18283613  0.88653967     0.16820
O636        O  0.41561132  0.17147497  0.81626514    -0.60100
H637        H  0.34202010  0.07778836  0.84339008     0.16830
O638        O  0.32151475  0.08904698  0.91305237    -0.60200
H639        H  0.33033935  0.08359473  0.93664415     0.43830
H640        H  0.40721578  0.18008384  0.79707360     0.43780
C641        C  0.40629762  0.58748746  0.24853706     0.03320
C642        C  0.39727463  0.59464675  0.28735817    -0.12830
C643        C  0.38458065  0.61194318  0.28677634     0.00820
C644        C  0.37919246  0.62074614  0.24713369    -0.11360
C645        C  0.38686649  0.61285010  0.20823268     0.03310
C646        C  0.40109825  0.59702752  0.20898331    -0.10780
H647        H  0.40057058  0.58733072  0.31824179     0.08900
H648        H  0.36884024  0.63363545  0.24653655     0.06430
H649        H  0.40870702  0.59299732  0.17871353     0.06280
C650        C  0.40628524  0.85443284  0.25356288     0.03320
C651        C  0.39580994  0.83835602  0.21433631    -0.12830
C652        C  0.38239438  0.80783600  0.21379222     0.00820
C653        C  0.37728467  0.79301163  0.25282565    -0.11360
C654        C  0.38598918  0.80828926  0.29239423     0.03310
C655        C  0.40095100  0.83896612  0.29259752    -0.10780
H656        H  0.39861011  0.84940219  0.18398081     0.08900
H657        H  0.36642173  0.76934495  0.25232074     0.06430
H658        H  0.40922691  0.85064577  0.32309745     0.06280
O659        O  0.26930032  0.66568332  0.03383879    -0.85160
O660        O  0.32111854  0.71556091  0.05732112    -0.82210
C661        C  0.34833538  0.73232979  0.06320791     0.98300
O662        O  0.36664953  0.73126029  0.03810766    -0.82240
O663        O  0.36383429  0.67989611  0.05540560    -0.84890
C664        C  0.35328779  0.65282964  0.05899532     1.02830
O665        O  0.33367470  0.63500088  0.03261197    -0.77650
O666        O  0.28474077  0.63672746  0.05319430    -0.77840
C667        C  0.26784116  0.64628326  0.05882221     1.02780
O668        O  0.28649595  0.68030431  0.44432126    -0.85160
O669        O  0.33496549  0.73209377  0.46817150    -0.82220
C670        C  0.35393835  0.73358476  0.44178371     0.98320
O671        O  0.36437801  0.71744915  0.44660565    -0.82250
O672        O  0.36707092  0.66922006  0.46415561    -0.84860
C673        C  0.34901898  0.64966347  0.43796317     1.02790
O674        O  0.32178567  0.63855668  0.44253461    -0.77680
O675        O  0.26987869  0.63497761  0.46260957    -0.77820
C676        C  0.26968910  0.65337981  0.43723260     1.02750
Cr677      Cr  0.30437411  0.69687157  0.50091889     1.93740
Cr678      Cr  0.36255136  0.69799685  0.50105239     1.93210
Cr679      Cr  0.30398808  0.63929405  0.49792998     1.39100
O680        O  0.32368108  0.67805965  0.50017933    -1.22910
C681        C  0.14606970  0.59084397  0.24855778     0.03320
C682        C  0.16286193  0.60171584  0.28700672    -0.12830
C683        C  0.19352589  0.61499192  0.28628258     0.00820
C684        C  0.20768158  0.61909961  0.24648504    -0.11360
C685        C  0.19164304  0.60984047  0.20768820     0.03310
C686        C  0.16087947  0.59523696  0.20883669    -0.10780
H687        H  0.15229898  0.60036586  0.31757152     0.08900
H688        H  0.23143260  0.62976320  0.24562389     0.06430
H689        H  0.14865508  0.58690547  0.17879281     0.06280
O690        O  0.20496196  0.85982901  0.03495984    -0.85160
O691        O  0.15262291  0.81071641  0.05546507    -0.82210
C692        C  0.12541071  0.79333151  0.05974268     0.98300
O693        O  0.10751556  0.79382174  0.03304942    -0.82240
O694        O  0.11036522  0.84509356  0.05271029    -0.84890
C695        C  0.12074072  0.87202955  0.05822306     1.02830
O696        O  0.14037910  0.89021082  0.03281038    -0.77650
O697        O  0.18886685  0.88818158  0.05574565    -0.77840
C698        C  0.20589871  0.87879179  0.06110314     1.02780
O699        O  0.18912914  0.84558112  0.44461439    -0.85160
O700        O  0.13999652  0.79367628  0.46531746    -0.82220
C701        C  0.12119843  0.79204412  0.43837920     0.98320
O702        O  0.11137827  0.80881776  0.44239390    -0.82250
O703        O  0.10886098  0.85737968  0.46187629    -0.84860
C704        C  0.12763576  0.87644198  0.43639679     1.02790
O705        O  0.15459550  0.88707864  0.44313879    -0.77680
O706        O  0.20571256  0.89069103  0.46595536    -0.77820
C707        C  0.20637209  0.87260509  0.43969419     1.02750
Cr708      Cr  0.17030048  0.82882517  0.50004208     1.93740
Cr709      Cr  0.11234346  0.82773686  0.49761556     1.93210
Cr710      Cr  0.17092323  0.88622807  0.49943442     1.39100
O711        O  0.15115426  0.84759297  0.49907850    -1.22910
C712        C  0.06700905  0.93717644  0.25090062     0.03320
C713        C  0.07157122  0.92709544  0.21082374    -0.12830
C714        C  0.08648871  0.91192658  0.20893916     0.00820
C715        C  0.09573139  0.90545253  0.24730142    -0.11360
C716        C  0.09125344  0.91488377  0.28739162     0.03310
C717        C  0.07795918  0.93163926  0.28894937    -0.10780
H718        H  0.06303534  0.93029301  0.18095759     0.08900
H719        H  0.10646798  0.89292482  0.24591711     0.06430
H720        H  0.07669014  0.94055037  0.31990651     0.06280
C721        C  0.32832242  0.93385421  0.25134459     0.03320
C722        C  0.31310060  0.92987055  0.21202991    -0.12830
C723        C  0.28231076  0.91515225  0.21106608     0.00820
C724        C  0.26669825  0.90562198  0.24986621    -0.11360
C725        C  0.28135655  0.90992420  0.28932478     0.03310
C726        C  0.31204461  0.92371450  0.28995556    -0.10780
H727        H  0.32500428  0.93869609  0.18221405     0.08900
H728        H  0.24292307  0.89472589  0.24935093     0.06430
H729        H  0.32304259  0.92607140  0.32056674     0.06280
C730        C  0.06323222  0.67091862  0.24635711     0.03320
C731        C  0.06865873  0.68631093  0.28601432    -0.12830
C732        C  0.08331952  0.71685251  0.28703538     0.00820
C733        C  0.09194053  0.73232698  0.24834537    -0.11360
C734        C  0.08695288  0.71763429  0.20854553     0.03310
C735        C  0.07287224  0.68698835  0.20763282    -0.10780
H736        H  0.06130181  0.67469221  0.31629556     0.08900
H737        H  0.10289003  0.75599124  0.24930788     0.06430
H738        H  0.07035252  0.67599372  0.17688829     0.06280
C739        C  0.47155588  0.52775832  0.25406186     0.02470
C740        C  0.45601629  0.99675811  0.25573670     0.02470
C741        C  0.47154924  0.98186069  0.25535636     0.02470
C742        C  0.00262780  0.99796239  0.25302844     0.02470
C743        C  0.01825575  0.52894844  0.25163008     0.02470
C744        C  0.00273135  0.54390312  0.25217529     0.02470
C745        C  0.01907077  0.57652442  0.25006697    -0.05280
C746        C  0.01389352  0.59010579  0.21547823    -0.32710
C747        C  0.02788132  0.62062832  0.21364622     0.36540
C748        C  0.04833357  0.63832500  0.24617746    -0.05640
C749        C  0.05387233  0.62453302  0.28026549    -0.32610
C750        C  0.03906075  0.59401858  0.28286919     0.36450
H751        H  0.49842818  0.57688944  0.19011287     0.16820
O752        O  0.01990971  0.63273028  0.18153789    -0.60100
H753        H  0.06953340  0.63738428  0.30559563     0.16830
O754        O  0.04257945  0.58138134  0.31904153    -0.60200
H755        H  0.06397439  0.58921908  0.32172691     0.43830
H756        H  0.52744005  0.62910587  0.15424058     0.43780
C757        C  0.36107829  0.94918918  0.25252875    -0.05280
C758        C  0.37664821  0.96771645  0.28788786    -0.32710
C759        C  0.40737398  0.98251960  0.29005492     0.36540
C760        C  0.42322673  0.97978331  0.25578518    -0.05640
C761        C  0.40788655  0.96114714  0.22068344    -0.32610
C762        C  0.37712866  0.94549281  0.21917228     0.36450
H763        H  0.36507714  0.97102194  0.31403494     0.16820
O764        O  0.42181540  0.49876641  0.32638540    -0.60100
H765        H  0.41987325  0.95857545  0.19437413     0.16830
O766        O  0.36302273  0.92548278  0.18622868    -0.60200
H767        H  0.36776110  0.93709754  0.15937621     0.43830
H768        H  0.41562012  0.51320772  0.33020218     0.43780
C769        C  0.05076026  0.95315511  0.25255828    -0.05280
C770        C  0.05224564  0.97026618  0.21710270    -0.32710
C771        C  0.03585344  0.98385476  0.21621618     0.36540
C772        C  0.01900222  0.98229621  0.25228552    -0.05640
C773        C  0.01785229  0.96594941  0.28813982    -0.32610
C774        C  0.03280794  0.95085518  0.28814278     0.36450
H775        H  0.06605420  0.97317311  0.18957120     0.16820
O776        O  0.53650861  0.99873503  0.17992762    -0.60100
H777        H  0.00479430  0.46446071  0.31602705     0.16830
O778        O  0.02887308  0.93335809  0.32273160    -0.60200
H779        H  0.01249290  0.41363002  0.31412170     0.43830
H780        H  0.52066834  0.98387920  0.16082929     0.43780
C781        C  0.11504016  0.77225962  0.09604486    -0.05280
C782        C  0.13539483  0.77562378  0.12812155    -0.32710
C783        C  0.12661095  0.75731740  0.16398029     0.36540
C784        C  0.09705639  0.73485895  0.16832503    -0.05640
C785        C  0.07679842  0.73052402  0.13565126    -0.32610
C786        C  0.08555418  0.74901891  0.09969851     0.36450
H787        H  0.15827883  0.79291201  0.12600409     0.16820
O788        O  0.14717177  0.76120599  0.19442304    -0.60100
H789        H  0.05394834  0.71330230  0.13869303     0.16830
O790        O  0.06498799  0.74443259  0.06890353    -0.60200
H791        H  0.06577026  0.73104734  0.04719226     0.43830
H792        H  0.15175304  0.77910286  0.21098091     0.43780
C793        C  0.11005789  0.77033896  0.40214398    -0.05280
C794        C  0.08662543  0.76704657  0.37647122    -0.32710
C795        C  0.07703612  0.74879592  0.33982911     0.36540
C796        C  0.09053371  0.73310067  0.32848711    -0.05640
C797        C  0.11301740  0.73519960  0.35480702    -0.32610
C798        C  0.12284724  0.75364981  0.39145538     0.36450
H799        H  0.07600468  0.77915358  0.38416186     0.16820
O800        O  0.05443959  0.74640753  0.31517571    -0.60100
H801        H  0.12369752  0.72331286  0.34598617     0.16830
O802        O  0.14585728  0.75621536  0.41516683    -0.60200
H803        H  0.13670038  0.74034301  0.43672681     0.43830
H804        H  0.06374709  0.76335320  0.29544467     0.43780
C805        C  0.22730484  0.88257107  0.40300864    -0.05280
C806        C  0.22335869  0.86217041  0.37046259    -0.32710
C807        C  0.24139932  0.87071002  0.33403965     0.36540
C808        C  0.26417173  0.90000944  0.32971748    -0.05640
C809        C  0.26904114  0.92029298  0.36279099    -0.32610
C810        C  0.25079209  0.91181051  0.39924157     0.36450
H811        H  0.20577905  0.83948639  0.37262754     0.16820
O812        O  0.23694846  0.85017888  0.30303077    -0.60100
H813        H  0.28650551  0.94295992  0.35970691     0.16830
O814        O  0.25585861  0.93239362  0.43043429    -0.60200
H815        H  0.26926844  0.93138301  0.45166247     0.43830
H816        H  0.21899130  0.84599169  0.28703413     0.43780
C817        C  0.26579586  0.90917385  0.16989729    -0.05280
C818        C  0.24440234  0.91682121  0.16657460    -0.32710
C819        C  0.22522688  0.90762172  0.13111592     0.36540
C820        C  0.22722648  0.89038966  0.09775105    -0.05640
C821        C  0.24949719  0.88374094  0.10034064    -0.32610
C822        C  0.26880542  0.89315713  0.13591791     0.36450
H823        H  0.24197076  0.92930934  0.19236835     0.16820
O824        O  0.20419824  0.91510832  0.13013319    -0.60100
H825        H  0.25165479  0.87073069  0.07514515     0.16830
O826        O  0.28917639  0.88487631  0.13859047    -0.60200
H827        H  0.30595690  0.89915553  0.12077045     0.43830
H828        H  0.18721299  0.89941883  0.14606979     0.43780
C829        C  0.10063413  0.90687443  0.32733915    -0.05280
C830        C  0.12959530  0.91323442  0.33069633    -0.32710
C831        C  0.13856694  0.90348613  0.36581238     0.36540
C832        C  0.11840890  0.88704867  0.39890526    -0.05640
C833        C  0.08937543  0.88086437  0.39561294    -0.32610
C834        C  0.08048522  0.89078665  0.36028571     0.36450
H835        H  0.14528201  0.92546875  0.30545831     0.16820
O836        O  0.16708024  0.90988930  0.36692657    -0.60100
H837        H  0.07345871  0.86820559  0.42034060     0.16830
O838        O  0.05168791  0.88325726  0.35699579    -0.60200
H839        H  0.05019269  0.89775184  0.37535619     0.43830
H840        H  0.16675116  0.89333110  0.35158502     0.43780
C841        C  0.10964058  0.88207102  0.09461102    -0.05280
C842        C  0.11978963  0.91200646  0.10031017    -0.32710
C843        C  0.11103784  0.92194434  0.13619537     0.36540
C844        C  0.09215868  0.90192770  0.16727542    -0.05640
C845        C  0.08111214  0.87205100  0.16085884    -0.32610
C846        C  0.08957303  0.86200648  0.12508847     0.36450
H847        H  0.13508082  0.92786909  0.07749372     0.16820
O848        O  0.12257702  0.95139322  0.14211883    -0.60100
H849        H  0.06647126  0.85644378  0.18453538     0.16830
O850        O  0.07841222  0.83249620  0.12092209    -0.60200
H851        H  0.09162440  0.82867556  0.13850526     0.43830
H852        H  0.10926027  0.95575435  0.12590113     0.43780
C853        C  0.11326315  0.57511438  0.24975536    -0.05280
C854        C  0.09764140  0.57825409  0.21555829    -0.32710
C855        C  0.06683797  0.56323911  0.21541169     0.36540
C856        C  0.05107632  0.54557589  0.25067948    -0.05640
C857        C  0.06653154  0.54257675  0.28496827    -0.32610
C858        C  0.09711406  0.55635763  0.28419344     0.36450
H859        H  0.10922051  0.59232094  0.18856622     0.16820
O860        O  0.05219558  0.56459970  0.17975207    -0.60100
H861        H  0.05466364  0.52885089  0.31216619     0.16830
O862        O  0.11074241  0.55044042  0.31668940    -0.60200
H863        H  0.11233984  0.53386375  0.30558546     0.43830
H864        H  0.05917928  0.58560420  0.17599542     0.43780
C865        C  0.24619618  0.63447634  0.09472532    -0.05280
C866        C  0.22517851  0.64274623  0.09914380    -0.32710
C867        C  0.20592960  0.63337974  0.13449054     0.36540
C868        C  0.20773307  0.61576352  0.16636339    -0.05640
C869        C  0.22774816  0.60646870  0.16111243    -0.32610
C870        C  0.24683476  0.61557533  0.12586598     0.36450
H871        H  0.22405816  0.65705977  0.07571263     0.16820
O872        O  0.18688398  0.64322071  0.13917507    -0.60100
H873        H  0.22922716  0.59276755  0.18533181     0.16830
O874        O  0.26642877  0.60628459  0.12292382    -0.60200
H875        H  0.28370145  0.62054627  0.14050872     0.43830
H876        H  0.16938125  0.62955439  0.12150661     0.43780
C877        C  0.21130867  0.62502477  0.32669363    -0.05280
C878        C  0.23616701  0.65334434  0.32867996    -0.32710
C879        C  0.25519006  0.66271771  0.36430272     0.36540
C880        C  0.24948373  0.64371335  0.39935396    -0.05640
C881        C  0.22433639  0.61543968  0.39766482    -0.32610
C882        C  0.20518835  0.60611664  0.36183808     0.36450
H883        H  0.24116238  0.66819563  0.30200441     0.16820
O884        O  0.27964523  0.69039166  0.36393967    -0.60100
H885        H  0.21950931  0.60047324  0.42410187     0.16830
O886        O  0.18151496  0.57798792  0.36039157    -0.60200
H887        H  0.16645343  0.57818048  0.37906874     0.43830
H888        H  0.29536368  0.68810929  0.35084851     0.43780
C889        C  0.42333831  0.88717760  0.25389742    -0.05280
C890        C  0.42058123  0.90271719  0.28890140    -0.32710
C891        C  0.43696374  0.93332785  0.29060438     0.36540
C892        C  0.45515448  0.94918784  0.25573465    -0.05640
C893        C  0.45782260  0.93388188  0.22066983    -0.32610
C894        C  0.44309420  0.90334476  0.22026474     0.36450
H895        H  0.40571795  0.89119989  0.31526759     0.16820
O896        O  0.43488515  0.94754424  0.32640512    -0.60100
H897        H  0.47191294  0.94574652  0.19374550     0.16830
O898        O  0.44898410  0.88974541  0.18735968    -0.60200
H899        H  0.46499436  0.88728288  0.19861189     0.43830
H900        H  0.45194601  0.95193600  0.34493229     0.43780
C901        C  0.38028142  0.79167446  0.33295487    -0.05280
C902        C  0.38855082  0.77079273  0.33548255    -0.32710
C903        C  0.38055226  0.75216431  0.37082263     0.36540
C904        C  0.36407659  0.75429294  0.40508136    -0.05640
C905        C  0.35649900  0.77583293  0.40307321    -0.32610
C906        C  0.36462474  0.79454666  0.36748323     0.36450
H907        H  0.40074261  0.76842526  0.30926422     0.16820
O908        O  0.38845515  0.73151595  0.37081684    -0.60100
H909        H  0.34383645  0.77792031  0.42880211     0.16830
O910        O  0.35557474  0.81427302  0.36548437    -0.60200
H911        H  0.36979260  0.83113880  0.38374588     0.43830
H912        H  0.37233912  0.71432011  0.35521332     0.43780
C913        C  0.35878196  0.75361107  0.09952685    -0.05280
C914        C  0.34539730  0.76991357  0.10783168    -0.32710
C915        C  0.35390809  0.78892444  0.14381398     0.36540
C916        C  0.37540418  0.79106748  0.17264585    -0.05640
C917        C  0.38907490  0.77514426  0.16388098    -0.32610
C918        C  0.38100887  0.75664814  0.12758093     0.36450
H919        H  0.32817696  0.76772901  0.08653897     0.16820
O920        O  0.33997997  0.80399697  0.15187761    -0.60100
H921        H  0.40559632  0.77654159  0.18594936     0.16830
O922        O  0.39381506  0.74037619  0.12117118    -0.60200
H923        H  0.38040540  0.72144330  0.13530645     0.43830
H924        H  0.35061276  0.82194910  0.13429410     0.43780
C925        C  0.42250701  0.57159734  0.24972680    -0.05280
C926        C  0.44232022  0.57720659  0.28394634    -0.32710
C927        C  0.45804189  0.56288601  0.28611970     0.36540
C928        C  0.45495680  0.54324847  0.25290692    -0.05640
C929        C  0.43547482  0.53775678  0.21850683    -0.32610
C930        C  0.41880449  0.55110679  0.21719392     0.36450
H931        H  0.44582350  0.59284027  0.30933174     0.16820
O932        O  0.97515037  0.56689851  0.32188881    -0.60100
H933        H  0.43269845  0.52248351  0.19291158     0.16830
O934        O  0.39772046  0.54259002  0.18550100    -0.60200
H935        H  0.40858609  0.54910071  0.15777144     0.43830
H936        H  0.98940590  0.58825402  0.32425713     0.43780
C937        C  0.36389701  0.64197682  0.09443953    -0.05280
C938        C  0.34723303  0.61240664  0.10644278    -0.32710
C939        C  0.35541433  0.60229795  0.14225495     0.36540
C940        C  0.38031834  0.62185619  0.16693733    -0.05640
C941        C  0.39781449  0.65090466  0.15397588    -0.32610
C942        C  0.38996768  0.66108823  0.11786392     0.36450
H943        H  0.32731513  0.59723834  0.08886213     0.16820
O944        O  0.33812551  0.57362726  0.15421149    -0.60100
H945        H  0.41737608  0.66589656  0.17244952     0.16830
O946        O  0.40829230  0.68945411  0.10491497    -0.60200
H947        H  0.41166446  0.70199723  0.13080755     0.43830
H948        H  0.34701370  0.56335913  0.13998523     0.43780
C949        C  0.35970562  0.63948037  0.40173154    -0.05280
C950        C  0.38393472  0.65985909  0.37748936    -0.32710
C951        C  0.39238245  0.65100715  0.34016463     0.36540
C952        C  0.37716892  0.62130071  0.32752304    -0.05640
C953        C  0.35383606  0.60070780  0.35282930    -0.32610
C954        C  0.34490149  0.60963185  0.38953042     0.36450
H955        H  0.39562052  0.68283610  0.38653964     0.16820
O956        O  0.41561128  0.67147500  0.31626512    -0.60100
H957        H  0.34202009  0.57778836  0.34338993     0.16830
O958        O  0.32151470  0.58904692  0.41305222    -0.60200
H959        H  0.33033929  0.58359466  0.43664400     0.43830
H960        H  0.40721575  0.68008388  0.29707359     0.43780
C961        C  0.40629759  0.58748742  0.74853704     0.03320
C962        C  0.39727462  0.59464672  0.78735817    -0.12830
C963        C  0.38458065  0.61194316  0.78677635     0.00820
C964        C  0.37919243  0.62074610  0.74713371    -0.11360
C965        C  0.38686644  0.61285005  0.70823268     0.03310
C966        C  0.40109820  0.59702747  0.70898330    -0.10780
H967        H  0.40057058  0.58733070  0.81824178     0.08900
H968        H  0.36884022  0.63363542  0.74653657     0.06430
H969        H  0.40870695  0.59299726  0.67871351     0.06280
C970        C  0.40628536  0.85443283  0.75356276     0.03320
C971        C  0.39581004  0.83835599  0.71433622    -0.12830
C972        C  0.38239446  0.80783597  0.71379218     0.00820
C973        C  0.37728478  0.79301162  0.75282562    -0.11360
C974        C  0.38598932  0.80828928  0.79239418     0.03310
C975        C  0.40095115  0.83896614  0.79259743    -0.10780
H976        H  0.39861020  0.84940214  0.68398071     0.08900
H977        H  0.36642183  0.76934494  0.75232074     0.06430
H978        H  0.40922708  0.85064580  0.82309733     0.06280
O979        O  0.26930024  0.66568325  0.53383879    -0.85160
O980        O  0.32111846  0.71556082  0.55732115    -0.82210
C981        C  0.34833531  0.73232971  0.56320792     0.98300
O982        O  0.36664944  0.73126022  0.53810764    -0.82240
O983        O  0.36383422  0.67989604  0.55540558    -0.84890
C984        C  0.35328772  0.65282958  0.55899531     1.02830
O985        O  0.33367462  0.63500081  0.53261196    -0.77650
O986        O  0.28474069  0.63672738  0.55319428    -0.77840
C987        C  0.26784109  0.64628319  0.55882221     1.02780
O988        O  0.28649603  0.68030437  0.94432125    -0.85160
O989        O  0.33496558  0.73209384  0.96817147    -0.82220
C990        C  0.35393845  0.73358482  0.94178370     0.98320
O991        O  0.36437811  0.71744921  0.94660567    -0.82250
O992        O  0.36707099  0.66922011  0.96415562    -0.84860
C993        C  0.34901905  0.64966353  0.93796319     1.02790
O994        O  0.32178574  0.63855674  0.94253463    -0.77680
O995        O  0.26987876  0.63497767  0.96260961    -0.77820
C996        C  0.26968917  0.65337986  0.93723263     1.02750
Cr997      Cr  0.30437419  0.69687164  0.00091888     1.93740
Cr998      Cr  0.36255144  0.69799691  0.00105241     1.93210
Cr999      Cr  0.30398815  0.63929412  0.99793000     1.39100
O1000       O  0.32368116  0.67805972  0.00017934    -1.22910
C1001       C  0.14606971  0.59084393  0.74855789     0.03320
C1002       C  0.16286194  0.60171575  0.78700684    -0.12830
C1003       C  0.19352589  0.61499186  0.78628269     0.00820
C1004       C  0.20768159  0.61909959  0.74648514    -0.11360
C1005       C  0.19164305  0.60984046  0.70768829     0.03310
C1006       C  0.16087948  0.59523695  0.70883679    -0.10780
H1007       H  0.15229897  0.60036570  0.81757165     0.08900
H1008       H  0.23143261  0.62976320  0.74562399     0.06430
H1009       H  0.14865508  0.58690550  0.67879291     0.06280
O1010       O  0.20496196  0.85982897  0.53495984    -0.85160
O1011       O  0.15262292  0.81071635  0.55546506    -0.82210
C1012       C  0.12541072  0.79333145  0.55974268     0.98300
O1013       O  0.10751556  0.79382168  0.53304943    -0.82240
O1014       O  0.11036520  0.84509348  0.55271031    -0.84890
C1015       C  0.12074069  0.87202947  0.55822308     1.02830
O1016       O  0.14037906  0.89021074  0.53281040    -0.77650
O1017       O  0.18886682  0.88818152  0.55574568    -0.77840
C1018       C  0.20589869  0.87879174  0.56110315     1.02780
O1019       O  0.18912915  0.84558114  0.94461440    -0.85160
O1020       O  0.13999651  0.79367632  0.96531748    -0.82220
C1021       C  0.12119842  0.79204416  0.93837921     0.98320
O1022       O  0.11137828  0.80881782  0.94239389    -0.82250
O1023       O  0.10886101  0.85737976  0.96187627    -0.84860
C1024       C  0.12763579  0.87644205  0.93639677     1.02790
O1025       O  0.15459552  0.88707870  0.94313876    -0.77680
O1026       O  0.20571258  0.89069106  0.96595533    -0.77820
C1027       C  0.20637211  0.87260511  0.93969418     1.02750
Cr1028     Cr  0.17030048  0.82882521  0.00004209     1.93740
Cr1029     Cr  0.11234347  0.82773693  0.99761555     1.93210
Cr1030     Cr  0.17092325  0.88622813  0.99943439     1.39100
O1031       O  0.15115427  0.84759303  0.99907849    -1.22910
C1032       C  0.06700895  0.93717634  0.75090051     0.03320
C1033       C  0.07157116  0.92709536  0.71082365    -0.12830
C1034       C  0.08648868  0.91192653  0.70893912     0.00820
C1035       C  0.09573138  0.90545252  0.74730139    -0.11360
C1036       C  0.09125340  0.91488376  0.78739158     0.03310
C1037       C  0.07795907  0.93163919  0.78894929    -0.10780
H1038       H  0.06303529  0.93029294  0.68095749     0.08900
H1039       H  0.10646800  0.89292484  0.74591712     0.06430
H1040       H  0.07668995  0.94055028  0.81990642     0.06280
C1041       C  0.32832242  0.93385413  0.75134456     0.03320
C1042       C  0.31310059  0.92987047  0.71202989    -0.12830
C1043       C  0.28231075  0.91515217  0.71106607     0.00820
C1044       C  0.26669825  0.90562192  0.74986621    -0.11360
C1045       C  0.28135656  0.90992413  0.78932477     0.03310
C1046       C  0.31204461  0.92371443  0.78995553    -0.10780
H1047       H  0.32500427  0.93869601  0.68221403     0.08900
H1048       H  0.24292307  0.89472583  0.74935094     0.06430
H1049       H  0.32304261  0.92607132  0.82056671     0.06280
C1050       C  0.06323223  0.67091862  0.74635718     0.03320
C1051       C  0.06865874  0.68631093  0.78601439    -0.12830
C1052       C  0.08331952  0.71685251  0.78703545     0.00820
C1053       C  0.09194054  0.73232697  0.74834544    -0.11360
C1054       C  0.08695290  0.71763428  0.70854559     0.03310
C1055       C  0.07287225  0.68698834  0.70763289    -0.10780
H1056       H  0.06130181  0.67469220  0.81629563     0.08900
H1057       H  0.10289004  0.75599124  0.74930794     0.06430
H1058       H  0.07035253  0.67599371  0.67688837     0.06280
C1059       C  0.47155589  0.52775831  0.75406172     0.02470
C1060       C  0.45601629  0.99675808  0.75573659     0.02470
C1061       C  0.47154924  0.98186067  0.75535622     0.02470
C1062       C  0.00262781  0.99796238  0.75302837     0.02470
C1063       C  0.01825577  0.52894843  0.75163002     0.02470
C1064       C  0.00273136  0.54390311  0.75217523     0.02470
C1065       C  0.01907078  0.57652442  0.75006696    -0.05280
C1066       C  0.01389351  0.59010580  0.71547826    -0.32710
C1067       C  0.02788130  0.62062833  0.71364629     0.36540
C1068       C  0.04833357  0.63832499  0.74617752    -0.05640
C1069       C  0.05387234  0.62453300  0.78026552    -0.32610
C1070       C  0.03906077  0.59401856  0.78286918     0.36450
H1071       H  0.49842817  0.57688946  0.69011291     0.16820
O1072       O  0.01990968  0.63273031  0.68153799    -0.60100
H1073       H  0.06953341  0.63738425  0.80559566     0.16830
O1074       O  0.04257949  0.58138131  0.81904148    -0.60200
H1075       H  0.06397443  0.58921901  0.82172678     0.43830
H1076       H  0.52743999  0.62910589  0.65424069     0.43780
C1077       C  0.36107829  0.94918910  0.75252870    -0.05280
C1078       C  0.37664821  0.96771638  0.78788781    -0.32710
C1079       C  0.40737398  0.98251955  0.79005485     0.36540
C1080       C  0.42322673  0.97978328  0.75578508    -0.05640
C1081       C  0.40788654  0.96114711  0.72068334    -0.32610
C1082       C  0.37712866  0.94549275  0.71917221     0.36450
H1083       H  0.36507715  0.97102185  0.81403490     0.16820
O1084       O  0.42181542  0.49876634  0.82638519    -0.60100
H1085       H  0.41987324  0.95857542  0.69437401     0.16830
O1086       O  0.36302272  0.92548271  0.68622862    -0.60200
H1087       H  0.36776108  0.93709747  0.65937614     0.43830
H1088       H  0.41562012  0.51320764  0.83020204     0.43780
C1089       C  0.05076016  0.95315499  0.75255813    -0.05280
C1090       C  0.05224571  0.97026623  0.71710268    -0.32710
C1091       C  0.03585356  0.98385486  0.71621617     0.36540
C1092       C  0.01900223  0.98229619  0.75228543    -0.05640
C1093       C  0.01785212  0.96594921  0.78813961    -0.32610
C1094       C  0.03280769  0.95085491  0.78814250     0.36450
H1095       H  0.06605436  0.97317322  0.68957126     0.16820
O1096       O  0.53650905  0.99873543  0.67992780    -0.60100
H1097       H  0.00479335  0.46445969  0.81602619     0.16830
O1098       O  0.02887261  0.93335758  0.82273110    -0.60200
H1099       H  0.01249149  0.41362855  0.81411916     0.43830
H1100       H  0.52066854  0.98387984  0.66082953     0.43780
C1101       C  0.11504018  0.77225957  0.59604488    -0.05280
C1102       C  0.13539485  0.77562376  0.62812159    -0.32710
C1103       C  0.12661097  0.75731740  0.66398036     0.36540
C1104       C  0.09705641  0.73485894  0.66832509    -0.05640
C1105       C  0.07679845  0.73052398  0.63565130    -0.32610
C1106       C  0.08555420  0.74901885  0.59969852     0.36450
H1107       H  0.15827884  0.79291201  0.62600414     0.16820
O1108       O  0.14717179  0.76120601  0.69442312    -0.60100
H1109       H  0.05394837  0.71330225  0.63869306     0.16830
O1110       O  0.06498802  0.74443250  0.56890352    -0.60200
H1111       H  0.06577031  0.73104726  0.54719227     0.43830
H1112       H  0.15175305  0.77910290  0.71098096     0.43780
C1113       C  0.11005788  0.77033898  0.90214401    -0.05280
C1114       C  0.08662542  0.76704658  0.87647125    -0.32710
C1115       C  0.07703611  0.74879592  0.83982916     0.36540
C1116       C  0.09053371  0.73310067  0.82848718    -0.05640
C1117       C  0.11301739  0.73519961  0.85480710    -0.32610
C1118       C  0.12284723  0.75364983  0.89145544     0.36450
H1119       H  0.07600466  0.77915359  0.88416187     0.16820
O1120       O  0.05443957  0.74640751  0.81517575    -0.60100
H1121       H  0.12369752  0.72331288  0.84598626     0.16830
O1122       O  0.14585728  0.75621539  0.91516690    -0.60200
H1123       H  0.13670038  0.74034305  0.93672688     0.43830
H1124       H  0.06374706  0.76335316  0.79544469     0.43780
C1125       C  0.22730486  0.88257106  0.90300864    -0.05280
C1126       C  0.22335871  0.86217039  0.87046261    -0.32710
C1127       C  0.24139934  0.87070998  0.83403968     0.36540
C1128       C  0.26417175  0.90000939  0.82971748    -0.05640
C1129       C  0.26904117  0.92029295  0.86279097    -0.32610
C1130       C  0.25079212  0.91181050  0.89924155     0.36450
H1131       H  0.20577906  0.83948637  0.87262759     0.16820
O1132       O  0.23694847  0.85017883  0.80303082    -0.60100
H1133       H  0.28650554  0.94295989  0.85970687     0.16830
O1134       O  0.25585865  0.93239363  0.93043426    -0.60200
H1135       H  0.26926847  0.93138302  0.95166245     0.43830
H1136       H  0.21899131  0.84599164  0.78703416     0.43780
C1137       C  0.26579585  0.90917378  0.66989729    -0.05280
C1138       C  0.24440235  0.91682116  0.66657459    -0.32710
C1139       C  0.22522689  0.90762169  0.63111591     0.36540
C1140       C  0.22722647  0.89038961  0.59775106    -0.05640
C1141       C  0.24949717  0.88374086  0.60034065    -0.32610
C1142       C  0.26880539  0.89315705  0.63591792     0.36450
H1143       H  0.24197079  0.92930932  0.69236834     0.16820
O1144       O  0.20419828  0.91510832  0.63013317    -0.60100
H1145       H  0.25165475  0.87073060  0.57514517     0.16830
O1146       O  0.28917635  0.88487620  0.63859048    -0.60200
H1147       H  0.30595686  0.89915542  0.62077047     0.43830
H1148       H  0.18721302  0.89941885  0.64606979     0.43780
C1149       C  0.10063412  0.90687447  0.82733914    -0.05280
C1150       C  0.12959528  0.91323441  0.83069626    -0.32710
C1151       C  0.13856693  0.90348614  0.86581230     0.36540
C1152       C  0.11840892  0.88704875  0.89890526    -0.05640
C1153       C  0.08937548  0.88086453  0.89561302    -0.32610
C1154       C  0.08048525  0.89078679  0.86028579     0.36450
H1155       H  0.14528197  0.92546868  0.80545818     0.16820
O1156       O  0.16708021  0.90988923  0.86692642    -0.60100
H1157       H  0.07345879  0.86820581  0.92034075     0.16830
O1158       O  0.05168796  0.88325747  0.85699597    -0.60200
H1159       H  0.05019280  0.89775206  0.87535643     0.43830
H1160       H  0.16675106  0.89333100  0.85158489     0.43780
C1161       C  0.10964055  0.88207093  0.59461102    -0.05280
C1162       C  0.11978955  0.91200637  0.60031011    -0.32710
C1163       C  0.11103776  0.92194426  0.63619530     0.36540
C1164       C  0.09215865  0.90192763  0.66727541    -0.05640
C1165       C  0.08111215  0.87205094  0.66085889    -0.32610
C1166       C  0.08957304  0.86200640  0.62508852     0.36450
H1167       H  0.13508071  0.92786899  0.57749362     0.16820
O1168       O  0.12257689  0.95139313  0.64211869    -0.60100
H1169       H  0.06647130  0.85644372  0.68453547     0.16830
O1170       O  0.07841227  0.83249613  0.62092220    -0.60200
H1171       H  0.09162449  0.82867554  0.63850536     0.43830
H1172       H  0.10926012  0.95575421  0.62590097     0.43780
C1173       C  0.11326317  0.57511436  0.74975545    -0.05280
C1174       C  0.09764146  0.57825424  0.71555851    -0.32710
C1175       C  0.06683803  0.56323928  0.71541187     0.36540
C1176       C  0.05107635  0.54557589  0.75067950    -0.05640
C1177       C  0.06653153  0.54257659  0.78496819    -0.32610
C1178       C  0.09711406  0.55635747  0.78419339     0.36450
H1179       H  0.10922061  0.59232120  0.68856655     0.16820
O1180       O  0.05219569  0.56460002  0.67975230    -0.60100
H1181       H  0.05466361  0.52885059  0.81216598     0.16830
O1182       O  0.11074239  0.55044012  0.81668921    -0.60200
H1183       H  0.11233985  0.53386352  0.80558505     0.43830
H1184       H  0.05917950  0.58560456  0.67599573     0.43780
C1185       C  0.24619613  0.63447629  0.59472535    -0.05280
C1186       C  0.22517847  0.64274619  0.59914386    -0.32710
C1187       C  0.20592958  0.63337973  0.63449062     0.36540
C1188       C  0.20773307  0.61576352  0.66636348    -0.05640
C1189       C  0.22774816  0.60646869  0.66111251    -0.32610
C1190       C  0.24683473  0.61557530  0.62586603     0.36450
H1191       H  0.22405810  0.65705972  0.57571268     0.16820
O1192       O  0.18688397  0.64322071  0.63917517    -0.60100
H1193       H  0.22922717  0.59276756  0.68533189     0.16830
O1194       O  0.26642874  0.60628456  0.62292384    -0.60200
H1195       H  0.28370143  0.62054624  0.64050872     0.43830
H1196       H  0.16938124  0.62955439  0.62150671     0.43780
C1197       C  0.21130869  0.62502474  0.82669372    -0.05280
C1198       C  0.23616699  0.65334434  0.82868004    -0.32710
C1199       C  0.25519005  0.66271774  0.86430279     0.36540
C1200       C  0.24948378  0.64371339  0.89935402    -0.05640
C1201       C  0.22433646  0.61543969  0.89766490    -0.32610
C1202       C  0.20518840  0.60611662  0.86183817     0.36450
H1203       H  0.24116232  0.66819562  0.80200450     0.16820
O1204       O  0.27964519  0.69039171  0.86393973    -0.60100
H1205       H  0.21950942  0.60047326  0.92410194     0.16830
O1206       O  0.18151505  0.57798789  0.86039167    -0.60200
H1207       H  0.16645351  0.57818042  0.87906886     0.43830
H1208       H  0.29536366  0.68810938  0.85084853     0.43780
C1209       C  0.42333839  0.88717758  0.75389728    -0.05280
C1210       C  0.42058128  0.90271717  0.78890124    -0.32710
C1211       C  0.43696374  0.93332782  0.79060420     0.36540
C1212       C  0.45515448  0.94918782  0.75573447    -0.05640
C1213       C  0.45782263  0.93388187  0.72066965    -0.32610
C1214       C  0.44309427  0.90334475  0.72026458     0.36450
H1215       H  0.40571800  0.89119985  0.81526743     0.16820
O1216       O  0.43488514  0.94754420  0.82640494    -0.60100
H1217       H  0.47191298  0.94574652  0.69374533     0.16830
O1218       O  0.44898420  0.88974541  0.68735955    -0.60200
H1219       H  0.46499449  0.88728292  0.69861176     0.43830
H1220       H  0.45194597  0.95193591  0.84493216     0.43780
C1221       C  0.38028157  0.79167450  0.83295483    -0.05280
C1222       C  0.38855093  0.77079274  0.83548253    -0.32710
C1223       C  0.38055236  0.75216433  0.87082262     0.36540
C1224       C  0.36407670  0.75429300  0.90508135    -0.05640
C1225       C  0.35649917  0.77583302  0.90307319    -0.32610
C1226       C  0.36462493  0.79454675  0.86748320     0.36450
H1227       H  0.40074270  0.76842525  0.80926419     0.16820
O1228       O  0.38845520  0.73151594  0.87081684    -0.60100
H1229       H  0.34383663  0.77792043  0.92880210     0.16830
O1230       O  0.35557497  0.81427313  0.86548435    -0.60200
H1231       H  0.36979285  0.83113891  0.88374584     0.43830
H1232       H  0.37233915  0.71432010  0.85521333     0.43780
C1233       C  0.35878190  0.75361098  0.59952686    -0.05280
C1234       C  0.34539726  0.76991349  0.60783173    -0.32710
C1235       C  0.35390809  0.78892437  0.64381400     0.36540
C1236       C  0.37540421  0.79106742  0.67264583    -0.05640
C1237       C  0.38907491  0.77514418  0.66388093    -0.32610
C1238       C  0.38100883  0.75664805  0.62758090     0.36450
H1239       H  0.32817690  0.76772893  0.58653905     0.16820
O1240       O  0.33997999  0.80399693  0.65187768    -0.60100
H1241       H  0.40559635  0.77654151  0.68594927     0.16830
O1242       O  0.39381500  0.74037608  0.62117112    -0.60200
H1243       H  0.38040534  0.72144319  0.63530640     0.43830
H1244       H  0.35061278  0.82194904  0.63429414     0.43780
C1245       C  0.42250698  0.57159730  0.74972676    -0.05280
C1246       C  0.44232020  0.57720654  0.78394630    -0.32710
C1247       C  0.45804188  0.56288597  0.78611963     0.36540
C1248       C  0.45495680  0.54324846  0.75290681    -0.05640
C1249       C  0.43547483  0.53775678  0.71850672    -0.32610
C1250       C  0.41880448  0.55110677  0.71719386     0.36450
H1251       H  0.44582348  0.59284020  0.80933171     0.16820
O1252       O  0.97515036  0.56689846  0.82188872    -0.60100
H1253       H  0.43269847  0.52248353  0.69291145     0.16830
O1254       O  0.39772043  0.54258999  0.68550094    -0.60200
H1255       H  0.40858606  0.54910068  0.65777138     0.43830
H1256       H  0.98940588  0.58825397  0.82425707     0.43780
C1257       C  0.36389694  0.64197675  0.59443952    -0.05280
C1258       C  0.34723296  0.61240658  0.60644278    -0.32710
C1259       C  0.35541427  0.60229789  0.64225496     0.36540
C1260       C  0.38031828  0.62185614  0.66693733    -0.05640
C1261       C  0.39781443  0.65090460  0.65397587    -0.32610
C1262       C  0.38996762  0.66108817  0.61786391     0.36450
H1263       H  0.32731506  0.59723828  0.58886214     0.16820
O1264       O  0.33812546  0.57362720  0.65421150    -0.60100
H1265       H  0.41737602  0.66589651  0.67244951     0.16830
O1266       O  0.40829223  0.68945404  0.60491494    -0.60200
H1267       H  0.41166444  0.70199717  0.63080753     0.43830
H1268       H  0.34701364  0.56335907  0.63998523     0.43780
C1269       C  0.35970568  0.63948041  0.90173157    -0.05280
C1270       C  0.38393478  0.65985910  0.87748936    -0.32710
C1271       C  0.39238249  0.65100715  0.84016464     0.36540
C1272       C  0.37716894  0.62130070  0.82752306    -0.05640
C1273       C  0.35383609  0.60070781  0.85282935    -0.32610
C1274       C  0.34490154  0.60963188  0.88953046     0.36450
H1275       H  0.39562059  0.68283612  0.88653963     0.16820
O1276       O  0.41561132  0.67147499  0.81626510    -0.60100
H1277       H  0.34202011  0.57778836  0.84338999     0.16830
O1278       O  0.32151475  0.58904696  0.91305229    -0.60200
H1279       H  0.33033934  0.58359471  0.93664407     0.43830
H1280       H  0.40721578  0.68008386  0.79707357     0.43780
C1281       C  0.90629761  0.08748744  0.24853708     0.03320
C1282       C  0.89727462  0.09464673  0.28735821    -0.12830
C1283       C  0.88458064  0.11194315  0.28677639     0.00820
C1284       C  0.87919244  0.12074611  0.24713375    -0.11360
C1285       C  0.88686648  0.11285009  0.20823273     0.03310
C1286       C  0.90109825  0.09702751  0.20898334    -0.10780
H1287       H  0.90057057  0.08733069  0.31824182     0.08900
H1288       H  0.86884022  0.13363543  0.24653662     0.06430
H1289       H  0.90870701  0.09299732  0.17871356     0.06280
C1290       C  0.90628519  0.35443285  0.25356300     0.03320
C1291       C  0.89580990  0.33835604  0.21433642    -0.12830
C1292       C  0.88239435  0.30783602  0.21379231     0.00820
C1293       C  0.87728463  0.29301164  0.25282573    -0.11360
C1294       C  0.88598912  0.30828925  0.29239432     0.03310
C1295       C  0.90095094  0.33896612  0.29259764    -0.10780
H1296       H  0.89861007  0.34940221  0.18398092     0.08900
H1297       H  0.86642170  0.26934495  0.25232080     0.06430
H1298       H  0.90922684  0.35064575  0.32309757     0.06280
O1299       O  0.76930037  0.16568337  0.03383885    -0.85160
O1300       O  0.82111859  0.21556095  0.05732118    -0.82210
C1301       C  0.84833543  0.23232984  0.06320797     0.98300
O1302       O  0.86664957  0.23126033  0.03810773    -0.82240
O1303       O  0.86383433  0.17989614  0.05540565    -0.84890
C1304       C  0.85328782  0.15282968  0.05899537     1.02830
O1305       O  0.83367473  0.13500091  0.03261202    -0.77650
O1306       O  0.78474081  0.13672751  0.05319435    -0.77840
C1307       C  0.76784120  0.14628331  0.05882226     1.02780
O1308       O  0.78649592  0.18030427  0.44432132    -0.85160
O1309       O  0.83496545  0.23209373  0.46817157    -0.82220
C1310       C  0.85393831  0.23358473  0.44178377     0.98320
O1311       O  0.86437797  0.21744911  0.44660570    -0.82250
O1312       O  0.86707089  0.16922003  0.46415565    -0.84860
C1313       C  0.84901896  0.14966344  0.43796322     1.02790
O1314       O  0.82178564  0.13855664  0.44253467    -0.77680
O1315       O  0.76987867  0.13497757  0.46260963    -0.77820
C1316       C  0.76968908  0.15337977  0.43723267     1.02750
Cr1317     Cr  0.80437407  0.19687152  0.50091896     1.93740
Cr1318     Cr  0.86255133  0.19799681  0.50105244     1.93210
Cr1319     Cr  0.80398805  0.13929401  0.49793004     1.39100
O1320       O  0.82368105  0.17805961  0.50017939    -1.22910
C1321       C  0.64606971  0.09084394  0.24855781     0.03320
C1322       C  0.66286193  0.10171578  0.28700676    -0.12830
C1323       C  0.69352589  0.11499188  0.28628262     0.00820
C1324       C  0.70768159  0.11909960  0.24648509    -0.11360
C1325       C  0.69164306  0.10984048  0.20768823     0.03310
C1326       C  0.66087949  0.09523697  0.20883672    -0.10780
H1327       H  0.65229897  0.10036576  0.31757156     0.08900
H1328       H  0.73143261  0.12976320  0.24562394     0.06430
H1329       H  0.64865510  0.08690551  0.17879283     0.06280
O1330       O  0.70496202  0.35982902  0.03495982    -0.85160
O1331       O  0.65262295  0.31071643  0.05546509    -0.82210
C1332       C  0.62541075  0.29333155  0.05974271     0.98300
O1333       O  0.60751560  0.29382179  0.03304946    -0.82240
O1334       O  0.61036530  0.34509364  0.05271030    -0.84890
C1335       C  0.62074080  0.37202963  0.05822304     1.02830
O1336       O  0.64037918  0.39021088  0.03281036    -0.77650
O1337       O  0.68886692  0.38818161  0.05574560    -0.77840
C1338       C  0.70589877  0.37879181  0.06110310     1.02780
O1339       O  0.68912909  0.34558108  0.44461439    -0.85160
O1340       O  0.63999649  0.29367623  0.46531750    -0.82220
C1341       C  0.62119838  0.29204404  0.43837925     0.98320
O1342       O  0.61137820  0.30881767  0.44239398    -0.82250
O1343       O  0.60886089  0.35737956  0.46187631    -0.84860
C1344       C  0.62763566  0.37644183  0.43639677     1.02790
O1345       O  0.65459540  0.38707852  0.44313881    -0.77680
O1346       O  0.70571249  0.39069098  0.46595536    -0.77820
C1347       C  0.70637202  0.37260505  0.43969419     1.02750
Cr1348     Cr  0.67030045  0.32882513  0.50004209     1.93740
Cr1349     Cr  0.61234340  0.32773678  0.49761563     1.93210
Cr1350     Cr  0.67092314  0.38622801  0.49943443     1.39100
O1351       O  0.65115420  0.34759291  0.49907854    -1.22910
C1352       C  0.56700933  0.43717670  0.25090075     0.03320
C1353       C  0.57157136  0.42709561  0.21082382    -0.12830
C1354       C  0.58648874  0.41192664  0.20893913     0.00820
C1355       C  0.59573136  0.40545247  0.24730133    -0.11360
C1356       C  0.59125354  0.41488376  0.28739155     0.03310
C1357       C  0.57795951  0.43163947  0.28894942    -0.10780
H1358       H  0.56303545  0.43029317  0.18095771     0.08900
H1359       H  0.60646784  0.39292465  0.24591696     0.06430
H1360       H  0.57669071  0.44055068  0.31990659     0.06280
C1361       C  0.82832241  0.43385422  0.25134466     0.03320
C1362       C  0.81310060  0.42987056  0.21202996    -0.12830
C1363       C  0.78231076  0.41515225  0.21106610     0.00820
C1364       C  0.76669824  0.40562198  0.24986621    -0.11360
C1365       C  0.78135652  0.40992420  0.28932480     0.03310
C1366       C  0.81204458  0.42371452  0.28995561    -0.10780
H1367       H  0.82500430  0.43869610  0.18221411     0.08900
H1368       H  0.74292305  0.39472588  0.24935092     0.06430
H1369       H  0.82304256  0.42607142  0.32056680     0.06280
C1370       C  0.56323222  0.17091862  0.24635710     0.03320
C1371       C  0.56865873  0.18631092  0.28601432    -0.12830
C1372       C  0.58331951  0.21685250  0.28703538     0.00820
C1373       C  0.59194052  0.23232698  0.24834538    -0.11360
C1374       C  0.58695288  0.21763429  0.20854553     0.03310
C1375       C  0.57287224  0.18698835  0.20763281    -0.10780
H1376       H  0.56130180  0.17469219  0.31629555     0.08900
H1377       H  0.60289002  0.25599124  0.24930790     0.06430
H1378       H  0.57035252  0.17599373  0.17688828     0.06280
C1379       C  0.97155589  0.02775832  0.25406177     0.02470
C1380       C  0.95601628  0.49675811  0.25573680     0.02470
C1381       C  0.97154924  0.48186070  0.25535648     0.02470
C1382       C  0.50262780  0.49796241  0.25302857     0.02470
C1383       C  0.51825577  0.02894843  0.25163005     0.02470
C1384       C  0.50273137  0.04390311  0.25217527     0.02470
C1385       C  0.51907078  0.07652442  0.25006695    -0.05280
C1386       C  0.51389351  0.09010579  0.21547823    -0.32710
C1387       C  0.52788131  0.12062832  0.21364622     0.36540
C1388       C  0.54833358  0.13832499  0.24617744    -0.05640
C1389       C  0.55387236  0.12453301  0.28026546    -0.32610
C1390       C  0.53906078  0.09401858  0.28286916     0.36450
H1391       H  0.99842816  0.07688945  0.19011288     0.16820
O1392       O  0.51990969  0.13273028  0.18153790    -0.60100
H1393       H  0.56953342  0.13738427  0.30559560     0.16830
O1394       O  0.54257949  0.08138134  0.31904148    -0.60200
H1395       H  0.56397443  0.08921906  0.32172681     0.43830
H1396       H  0.02743999  0.12910588  0.15424060     0.43780
C1397       C  0.86107828  0.44918918  0.25252883    -0.05280
C1398       C  0.87664819  0.46771646  0.28788794    -0.32710
C1399       C  0.90737397  0.48251961  0.29005501     0.36540
C1400       C  0.92322672  0.47978331  0.25578528    -0.05640
C1401       C  0.90788654  0.46114713  0.22068355    -0.32610
C1402       C  0.87712866  0.44549280  0.21917237     0.36450
H1403       H  0.86507713  0.47102195  0.31403500     0.16820
O1404       O  0.92181543  0.99876638  0.32638528    -0.60100
H1405       H  0.91987324  0.45857542  0.19437425     0.16830
O1406       O  0.86302273  0.42548277  0.18622878    -0.60200
H1407       H  0.86776110  0.43709752  0.15937631     0.43830
H1408       H  0.91562014  0.01320769  0.33020211     0.43780
C1409       C  0.55076058  0.45315544  0.25255855    -0.05280
C1410       C  0.55224550  0.47026610  0.21710265    -0.32710
C1411       C  0.53585317  0.48385455  0.21621610     0.36540
C1412       C  0.51900225  0.48229628  0.25228566    -0.05640
C1413       C  0.51785282  0.46594998  0.28814030    -0.32610
C1414       C  0.53280866  0.45085594  0.28814341     0.36450
H1415       H  0.56605380  0.47317282  0.18957091     0.16820
O1416       O  0.03650823  0.49873472  0.17992746    -0.60100
H1417       H  0.50479386  0.96446023  0.31602667     0.16830
O1418       O  0.52887439  0.43335948  0.32273281    -0.60200
H1419       H  0.51249226  0.91362934  0.31412055     0.43830
H1420       H  0.02066816  0.48387868  0.16082907     0.43780
C1421       C  0.61504020  0.27225965  0.09604488    -0.05280
C1422       C  0.63539486  0.27562381  0.12812159    -0.32710
C1423       C  0.62661097  0.25731741  0.16398032     0.36540
C1424       C  0.59705641  0.23485896  0.16832504    -0.05640
C1425       C  0.57679845  0.23052404  0.13565126    -0.32610
C1426       C  0.58555421  0.24901893  0.09969851     0.36450
H1427       H  0.65827885  0.29291205  0.12600415     0.16820
O1428       O  0.64717178  0.26120600  0.19442308    -0.60100
H1429       H  0.55394837  0.21330231  0.13869301     0.16830
O1430       O  0.56498803  0.24443261  0.06890352    -0.60200
H1431       H  0.56577032  0.23104738  0.04719225     0.43830
H1432       H  0.65175304  0.27910288  0.21098096     0.43780
C1433       C  0.61005786  0.27033889  0.40214402    -0.05280
C1434       C  0.58662540  0.26704652  0.37647127    -0.32710
C1435       C  0.57703610  0.24879589  0.33982914     0.36540
C1436       C  0.59053370  0.23310065  0.32848712    -0.05640
C1437       C  0.61301738  0.23519956  0.35480704    -0.32610
C1438       C  0.62284721  0.25364976  0.39145541     0.36450
H1439       H  0.57600464  0.27915352  0.38416191     0.16820
O1440       O  0.55443958  0.24640751  0.31517573    -0.60100
H1441       H  0.62369751  0.22331283  0.34598617     0.16830
O1442       O  0.64585725  0.25621530  0.41516687    -0.60200
H1443       H  0.63670034  0.24034295  0.43672684     0.43830
H1444       H  0.56374708  0.26335318  0.29544471     0.43780
C1445       C  0.72730477  0.38257104  0.40300863    -0.05280
C1446       C  0.72335864  0.36217039  0.37046258    -0.32710
C1447       C  0.74139928  0.37071002  0.33403965     0.36540
C1448       C  0.76417169  0.40000943  0.32971749    -0.05640
C1449       C  0.76904106  0.42029298  0.36279099    -0.32610
C1450       C  0.75079200  0.41181049  0.39924155     0.36450
H1451       H  0.70577901  0.33948637  0.37262753     0.16820
O1452       O  0.73694844  0.35017888  0.30303078    -0.60100
H1453       H  0.78650543  0.44295992  0.35970691     0.16830
O1454       O  0.75585850  0.43239361  0.43043427    -0.60200
H1455       H  0.76926834  0.43138302  0.45166246     0.43830
H1456       H  0.71899128  0.34599168  0.28703412     0.43780
C1457       C  0.76579588  0.40917385  0.16989730    -0.05280
C1458       C  0.74440235  0.41682120  0.16657459    -0.32710
C1459       C  0.72522691  0.40762172  0.13111589     0.36540
C1460       C  0.72722653  0.39038968  0.09775103    -0.05640
C1461       C  0.74949725  0.38374096  0.10034063    -0.32610
C1462       C  0.76880546  0.39315715  0.13591792     0.36450
H1463       H  0.74197076  0.42930933  0.19236833     0.16820
O1464       O  0.70419827  0.41510832  0.13013315    -0.60100
H1465       H  0.75165486  0.37073071  0.07514514     0.16830
O1466       O  0.78917643  0.38487633  0.13859049    -0.60200
H1467       H  0.80595694  0.39915556  0.12077049     0.43830
H1468       H  0.68721301  0.39941881  0.14606971     0.43780
C1469       C  0.60063413  0.40687428  0.32733903    -0.05280
C1470       C  0.62959532  0.41323436  0.33069635    -0.32710
C1471       C  0.63856692  0.40348605  0.36581241     0.36540
C1472       C  0.61840881  0.38704847  0.39890517    -0.05640
C1473       C  0.58937529  0.38086401  0.39561263    -0.32610
C1474       C  0.58048513  0.39078631  0.36028537     0.36450
H1475       H  0.64528209  0.42546881  0.30545845     0.16820
O1476       O  0.66708026  0.40988935  0.36692677    -0.60100
H1477       H  0.57345851  0.36820510  0.42034015     0.16830
O1478       O  0.55168778  0.38325678  0.35699523    -0.60200
H1479       H  0.55019244  0.39775136  0.37535544     0.43830
H1480       H  0.66675131  0.39333123  0.35158519     0.43780
C1481       C  0.60964065  0.38207111  0.09461097    -0.05280
C1482       C  0.61978983  0.41200658  0.10031026    -0.32710
C1483       C  0.61103802  0.42194445  0.13619545     0.36540
C1484       C  0.59215868  0.40192778  0.16727534    -0.05640
C1485       C  0.58111201  0.37205107  0.16085860    -0.32610
C1486       C  0.58957293  0.36200655  0.12508825     0.36450
H1487       H  0.63508116  0.42786922  0.07749395     0.16820
O1488       O  0.62257735  0.45139334  0.14211908    -0.60100
H1489       H  0.56647100  0.35644383  0.18453503     0.16830
O1490       O  0.57841198  0.33249625  0.12092174    -0.60200
H1491       H  0.59162403  0.32867548  0.13850500     0.43830
H1492       H  0.60926070  0.45575462  0.12590141     0.43780
C1493       C  0.61326316  0.07511436  0.24975537    -0.05280
C1494       C  0.59764143  0.07825415  0.21555837    -0.32710
C1495       C  0.56683800  0.06323918  0.21541176     0.36540
C1496       C  0.55107634  0.04557588  0.25067948    -0.05640
C1497       C  0.56653155  0.04257667  0.28496822    -0.32610
C1498       C  0.59711407  0.05635754  0.28419339     0.36450
H1499       H  0.60922055  0.09232105  0.18856635     0.16820
O1500       O  0.55219563  0.06459983  0.17975216    -0.60100
H1501       H  0.55466364  0.02885075  0.31216608     0.16830
O1502       O  0.61074241  0.05044026  0.31668928    -0.60200
H1503       H  0.61233985  0.03386362  0.30558522     0.43830
H1504       H  0.55917939  0.08560436  0.17599555     0.43780
C1505       C  0.74619622  0.13447639  0.09472537    -0.05280
C1506       C  0.72517855  0.14274627  0.09914386    -0.32710
C1507       C  0.70592963  0.13337978  0.13449059     0.36540
C1508       C  0.70773310  0.11576355  0.16636343    -0.05640
C1509       C  0.72774819  0.10646873  0.16111247    -0.32610
C1510       C  0.74683479  0.11557537  0.12586603     0.36450
H1511       H  0.72405820  0.15705983  0.07571269     0.16820
O1512       O  0.68688401  0.14322075  0.13917512    -0.60100
H1513       H  0.72922718  0.09276758  0.18533184     0.16830
O1514       O  0.76642881  0.10628463  0.12292386    -0.60200
H1515       H  0.78370148  0.12054631  0.14050877     0.43830
H1516       H  0.66938129  0.12955444  0.12150666     0.43780
C1517       C  0.71130867  0.12502473  0.32669368    -0.05280
C1518       C  0.73616699  0.15334430  0.32868002    -0.32710
C1519       C  0.75519003  0.16271767  0.36430280     0.36540
C1520       C  0.74948371  0.14371331  0.39935403    -0.05640
C1521       C  0.72433639  0.11543963  0.39766486    -0.32610
C1522       C  0.70518835  0.10611659  0.36183811     0.36450
H1523       H  0.74116235  0.16819560  0.30200449     0.16820
O1524       O  0.77964518  0.19039164  0.36393977    -0.60100
H1525       H  0.71950931  0.10047319  0.42410190     0.16830
O1526       O  0.68151498  0.07798786  0.36039158    -0.60200
H1527       H  0.66645344  0.07818040  0.37906875     0.43830
H1528       H  0.79536365  0.18810929  0.35084861     0.43780
C1529       C  0.92333829  0.38717761  0.25389756    -0.05280
C1530       C  0.92058124  0.40271721  0.28890156    -0.32710
C1531       C  0.93696376  0.43332787  0.29060454     0.36540
C1532       C  0.95515450  0.44918785  0.25573480    -0.05640
C1533       C  0.95782259  0.43388188  0.22066997    -0.32610
C1534       C  0.94309417  0.40334476  0.22026487     0.36450
H1535       H  0.90571796  0.39119991  0.31526775     0.16820
O1536       O  0.93488519  0.44754427  0.32640528    -0.60100
H1537       H  0.97191291  0.44574652  0.19374562     0.16830
O1538       O  0.94898404  0.38974541  0.18735979    -0.60200
H1539       H  0.96499429  0.38728285  0.19861197     0.43830
H1540       H  0.95194609  0.45193608  0.34493240     0.43780
C1541       C  0.88028135  0.29167444  0.33295495    -0.05280
C1542       C  0.88855077  0.27079273  0.33548263    -0.32710
C1543       C  0.88055222  0.25216430  0.37082270     0.36540
C1544       C  0.86407653  0.25429291  0.40508142    -0.05640
C1545       C  0.85649893  0.27583288  0.40307327    -0.32610
C1546       C  0.86462466  0.29454662  0.36748330     0.36450
H1547       H  0.90074257  0.26842528  0.30926429     0.16820
O1548       O  0.88845513  0.23151596  0.37081691    -0.60100
H1549       H  0.84383636  0.27792024  0.42880217     0.16830
O1550       O  0.85557464  0.31427295  0.36548445    -0.60200
H1551       H  0.86979249  0.33113874  0.38374596     0.43830
H1552       H  0.87233911  0.21432011  0.35521337     0.43780
C1553       C  0.85878200  0.25361112  0.09952690    -0.05280
C1554       C  0.84539734  0.26991362  0.10783172    -0.32710
C1555       C  0.85390810  0.28892447  0.14381402     0.36540
C1556       C  0.87540418  0.29106751  0.17264593    -0.05640
C1557       C  0.88907491  0.27514429  0.16388108    -0.32610
C1558       C  0.88100890  0.25664819  0.12758101     0.36450
H1559       H  0.82817700  0.26772906  0.08653899     0.16820
O1560       O  0.83997998  0.30399701  0.15187764    -0.60100
H1561       H  0.90559632  0.27654162  0.18594947     0.16830
O1562       O  0.89381510  0.24037624  0.12117128    -0.60200
H1563       H  0.88040543  0.22144335  0.13530655     0.43830
H1564       H  0.85061278  0.32194913  0.13429412     0.43780
C1565       C  0.92250700  0.07159732  0.24972681    -0.05280
C1566       C  0.94232022  0.07720657  0.28394634    -0.32710
C1567       C  0.95804190  0.06288600  0.28611967     0.36540
C1568       C  0.95495681  0.04324847  0.25290686    -0.05640
C1569       C  0.93547484  0.03775679  0.21850677    -0.32610
C1570       C  0.91880449  0.05110679  0.21719390     0.36450
H1571       H  0.94582350  0.09284023  0.30933175     0.16820
O1572       O  0.47515038  0.06689849  0.32188880    -0.60100
H1573       H  0.93269847  0.02248353  0.19291150     0.16830
O1574       O  0.89772045  0.04259003  0.18550099    -0.60200
H1575       H  0.90858608  0.04910072  0.15777142     0.43830
H1576       H  0.48940591  0.08825399  0.32425712     0.43780
C1577       C  0.86389703  0.14197684  0.09443958    -0.05280
C1578       C  0.84723304  0.11240666  0.10644282    -0.32710
C1579       C  0.85541433  0.10229796  0.14225500     0.36540
C1580       C  0.88031834  0.12185619  0.16693739    -0.05640
C1581       C  0.89781449  0.15090466  0.15397595    -0.32610
C1582       C  0.88996770  0.16108825  0.11786399     0.36450
H1583       H  0.82731514  0.09723837  0.08886217     0.16820
O1584       O  0.83812550  0.07362727  0.15421152    -0.60100
H1585       H  0.91737608  0.16589656  0.17244960     0.16830
O1586       O  0.90829232  0.18945412  0.10491506    -0.60200
H1587       H  0.91166446  0.20199724  0.13080763     0.43830
H1588       H  0.84701368  0.06335913  0.13998526     0.43780
C1589       C  0.85970560  0.13948034  0.40173159    -0.05280
C1590       C  0.88393470  0.15985905  0.37748942    -0.32710
C1591       C  0.89238244  0.15100711  0.34016470     0.36540
C1592       C  0.87716891  0.12130068  0.32752310    -0.05640
C1593       C  0.85383605  0.10070776  0.35282936    -0.32610
C1594       C  0.84490147  0.10963181  0.38953046     0.36450
H1595       H  0.89562050  0.18283606  0.38653971     0.16820
O1596       O  0.91561128  0.17147497  0.31626519    -0.60100
H1597       H  0.84202008  0.07778832  0.34338997     0.16830
O1598       O  0.82151467  0.08904688  0.41305226    -0.60200
H1599       H  0.83033926  0.08359462  0.43664404     0.43830
H1600       H  0.90721575  0.18008385  0.29707366     0.43780
C1601       C  0.90629756  0.08748738  0.74853709     0.03320
C1602       C  0.89727460  0.09464670  0.78735822    -0.12830
C1603       C  0.88458064  0.11194314  0.78677641     0.00820
C1604       C  0.87919242  0.12074608  0.74713377    -0.11360
C1605       C  0.88686641  0.11285002  0.70823274     0.03310
C1606       C  0.90109817  0.09702743  0.70898335    -0.10780
H1607       H  0.90057057  0.08733068  0.81824184     0.08900
H1608       H  0.86884021  0.13363540  0.74653664     0.06430
H1609       H  0.90870691  0.09299723  0.67871356     0.06280
C1610       C  0.90628533  0.35443284  0.75356276     0.03320
C1611       C  0.89581001  0.33835599  0.71433623    -0.12830
C1612       C  0.88239444  0.30783597  0.71379220     0.00820
C1613       C  0.87728477  0.29301163  0.75282564    -0.11360
C1614       C  0.88598931  0.30828929  0.79239420     0.03310
C1615       C  0.90095113  0.33896615  0.79259744    -0.10780
H1616       H  0.89861016  0.34940213  0.68398071     0.08900
H1617       H  0.86642182  0.26934495  0.75232078     0.06430
H1618       H  0.90922707  0.35064582  0.82309733     0.06280
O1619       O  0.76930021  0.16568320  0.53383885    -0.85160
O1620       O  0.82111843  0.21556078  0.55732121    -0.82210
C1621       C  0.84833527  0.23232967  0.56320798     0.98300
O1622       O  0.86664941  0.23126019  0.53810770    -0.82240
O1623       O  0.86383420  0.17989601  0.55540562    -0.84890
C1624       C  0.85328770  0.15282955  0.55899536     1.02830
O1625       O  0.83367460  0.13500077  0.53261202    -0.77650
O1626       O  0.78474066  0.13672734  0.55319434    -0.77840
C1627       C  0.76784106  0.14628315  0.55882227     1.02780
O1628       O  0.78649608  0.18030442  0.94432131    -0.85160
O1629       O  0.83496563  0.23209388  0.96817153    -0.82220
C1630       C  0.85393850  0.23358487  0.94178376     0.98320
O1631       O  0.86437815  0.21744926  0.94660572    -0.82250
O1632       O  0.86707103  0.16922015  0.96415567    -0.84860
C1633       C  0.84901909  0.14966356  0.93796324     1.02790
O1634       O  0.82178577  0.13855678  0.94253468    -0.77680
O1635       O  0.76987880  0.13497772  0.96260966    -0.77820
C1636       C  0.76968921  0.15337992  0.93723269     1.02750
Cr1637     Cr  0.80437424  0.19687169  0.00091894     1.93740
Cr1638     Cr  0.86255148  0.19799695  0.00105247     1.93210
Cr1639     Cr  0.80398819  0.13929417  0.99793005     1.39100
O1640       O  0.82368120  0.17805977  0.00017940    -1.22910
C1641       C  0.64606971  0.09084397  0.74855798     0.03320
C1642       C  0.66286194  0.10171580  0.78700693    -0.12830
C1643       C  0.69352590  0.11499192  0.78628278     0.00820
C1644       C  0.70768160  0.11909963  0.74648524    -0.11360
C1645       C  0.69164306  0.10984049  0.70768839     0.03310
C1646       C  0.66087949  0.09523698  0.70883689    -0.10780
H1647       H  0.65229897  0.10036576  0.81757174     0.08900
H1648       H  0.73143261  0.12976324  0.74562408     0.06430
H1649       H  0.64865509  0.08690552  0.67879301     0.06280
O1650       O  0.70496192  0.35982896  0.53495983    -0.85160
O1651       O  0.65262291  0.31071631  0.55546509    -0.82210
C1652       C  0.62541072  0.29333141  0.55974274     0.98300
O1653       O  0.60751554  0.29382162  0.53304951    -0.82240
O1654       O  0.61036514  0.34509341  0.55271037    -0.84890
C1655       C  0.62074062  0.37202940  0.55822311     1.02830
O1656       O  0.64037897  0.39021066  0.53281041    -0.77650
O1657       O  0.68886676  0.38818148  0.55574568    -0.77840
C1658       C  0.70589866  0.37879173  0.56110314     1.02780
O1659       O  0.68912918  0.34558112  0.94461438    -0.85160
O1660       O  0.63999653  0.29367633  0.96531751    -0.82220
C1661       C  0.62119844  0.29204416  0.93837925     0.98320
O1662       O  0.61137830  0.30881783  0.94239393    -0.82250
O1663       O  0.60886107  0.35737979  0.96187627    -0.84860
C1664       C  0.62763585  0.37644207  0.93639674     1.02790
O1665       O  0.65459558  0.38707871  0.94313872    -0.77680
O1666       O  0.70571263  0.39069105  0.96595527    -0.77820
C1667       C  0.70637215  0.37260509  0.93969414     1.02750
Cr1668     Cr  0.67030051  0.32882522  0.00004209     1.93740
Cr1669     Cr  0.61234353  0.32773697  0.99761557     1.93210
Cr1670     Cr  0.67092332  0.38622815  0.99943434     1.39100
O1671       O  0.65115432  0.34759305  0.99907848    -1.22910
C1672       C  0.56700898  0.43717637  0.75090055     0.03320
C1673       C  0.57157114  0.42709535  0.71082369    -0.12830
C1674       C  0.58648864  0.41192651  0.70893914     0.00820
C1675       C  0.59573136  0.40545251  0.74730140    -0.11360
C1676       C  0.59125343  0.41488377  0.78739159     0.03310
C1677       C  0.57795912  0.43163923  0.78894932    -0.10780
H1678       H  0.56303525  0.43029291  0.68095754     0.08900
H1679       H  0.60646797  0.39292481  0.74591712     0.06430
H1680       H  0.57669005  0.44055034  0.81990645     0.06280
C1681       C  0.82832242  0.43385415  0.75134447     0.03320
C1682       C  0.81310059  0.42987051  0.71202981    -0.12830
C1683       C  0.78231076  0.41515220  0.71106599     0.00820
C1684       C  0.76669825  0.40562190  0.74986612    -0.11360
C1685       C  0.78135656  0.40992411  0.78932468     0.03310
C1686       C  0.81204462  0.42371442  0.78995544    -0.10780
H1687       H  0.82500427  0.43869607  0.68221395     0.08900
H1688       H  0.74292307  0.39472581  0.74935086     0.06430
H1689       H  0.82304262  0.42607131  0.82056661     0.06280
C1690       C  0.56323221  0.17091859  0.74635725     0.03320
C1691       C  0.56865871  0.18631090  0.78601446    -0.12830
C1692       C  0.58331951  0.21685249  0.78703551     0.00820
C1693       C  0.59194055  0.23232695  0.74834550    -0.11360
C1694       C  0.58695292  0.21763426  0.70854566     0.03310
C1695       C  0.57287226  0.18698832  0.70763296    -0.10780
H1696       H  0.56130176  0.17469218  0.81629569     0.08900
H1697       H  0.60289007  0.25599121  0.74930800     0.06430
H1698       H  0.57035254  0.17599368  0.67688844     0.06280
C1699       C  0.97155589  0.02775830  0.75406172     0.02470
C1700       C  0.95601629  0.49675810  0.75573655     0.02470
C1701       C  0.97154923  0.48186068  0.75535619     0.02470
C1702       C  0.50262780  0.49796238  0.75302839     0.02470
C1703       C  0.51825577  0.02894842  0.75163005     0.02470
C1704       C  0.50273135  0.04390309  0.75217527     0.02470
C1705       C  0.51907076  0.07652440  0.75006702    -0.05280
C1706       C  0.51389349  0.09010578  0.71547832    -0.32710
C1707       C  0.52788129  0.12062832  0.71364635     0.36540
C1708       C  0.54833355  0.13832497  0.74617759    -0.05640
C1709       C  0.55387231  0.12453298  0.78026559    -0.32610
C1710       C  0.53906074  0.09401854  0.78286925     0.36450
H1711       H  0.99842816  0.07688946  0.69011293     0.16820
O1712       O  0.51990967  0.13273029  0.68153804    -0.60100
H1713       H  0.56953337  0.13738423  0.80559574     0.16830
O1714       O  0.54257946  0.08138129  0.81904155    -0.60200
H1715       H  0.56397439  0.08921899  0.82172687     0.43830
H1716       H  0.02743998  0.12910589  0.65424071     0.43780
C1717       C  0.86107829  0.44918914  0.75252861    -0.05280
C1718       C  0.87664821  0.46771641  0.78788773    -0.32710
C1719       C  0.90737398  0.48251958  0.79005478     0.36540
C1720       C  0.92322673  0.47978331  0.75578501    -0.05640
C1721       C  0.90788655  0.46114715  0.72068326    -0.32610
C1722       C  0.87712867  0.44549280  0.71917211     0.36450
H1723       H  0.86507714  0.47102187  0.81403482     0.16820
O1724       O  0.92181544  0.99876632  0.82638521    -0.60100
H1725       H  0.91987326  0.45857548  0.69437394     0.16830
O1726       O  0.86302274  0.42548277  0.68622850    -0.60200
H1727       H  0.86776109  0.43709754  0.65937604     0.43830
H1728       H  0.91562013  0.01320761  0.83020206     0.43780
C1729       C  0.55076019  0.45315503  0.75255820    -0.05280
C1730       C  0.55224566  0.47026619  0.71710268    -0.32710
C1731       C  0.53585349  0.48385480  0.71621617     0.36540
C1732       C  0.51900221  0.48229619  0.75228546    -0.05640
C1733       C  0.51785219  0.46594929  0.78813970    -0.32610
C1734       C  0.53280779  0.45085502  0.78814262     0.36450
H1735       H  0.56605427  0.47317314  0.68957123     0.16820
O1736       O  0.03650904  0.49873542  0.67992778    -0.60100
H1737       H  0.50479338  0.96445970  0.81602622     0.16830
O1738       O  0.52887282  0.43335781  0.82273133    -0.60200
H1739       H  0.51249153  0.91362857  0.81411920     0.43830
H1740       H  0.02066852  0.48387984  0.66082952     0.43780
C1741       C  0.61504020  0.27225953  0.59604493    -0.05280
C1742       C  0.63539487  0.27562372  0.62812164    -0.32710
C1743       C  0.62661099  0.25731736  0.66398041     0.36540
C1744       C  0.59705644  0.23485890  0.66832515    -0.05640
C1745       C  0.57679847  0.23052394  0.63565136    -0.32610
C1746       C  0.58555422  0.24901880  0.59969858     0.36450
H1747       H  0.65827886  0.29291197  0.62600418     0.16820
O1748       O  0.64717182  0.26120598  0.69442318    -0.60100
H1749       H  0.55394840  0.21330220  0.63869313     0.16830
O1750       O  0.56498803  0.24443243  0.56890358    -0.60200
H1751       H  0.56577034  0.23104720  0.54719233     0.43830
H1752       H  0.65175307  0.27910287  0.71098102     0.43780
C1753       C  0.61005788  0.27033897  0.90214406    -0.05280
C1754       C  0.58662543  0.26704659  0.87647129    -0.32710
C1755       C  0.57703611  0.24879592  0.83982920     0.36540
C1756       C  0.59053369  0.23310065  0.82848724    -0.05640
C1757       C  0.61301736  0.23519957  0.85480717    -0.32610
C1758       C  0.62284721  0.25364980  0.89145551     0.36450
H1759       H  0.57600468  0.27915361  0.88416189     0.16820
O1760       O  0.55443959  0.24640752  0.81517578    -0.60100
H1761       H  0.62369748  0.22331282  0.84598635     0.16830
O1762       O  0.64585724  0.25621534  0.91516698    -0.60200
H1763       H  0.63670033  0.24034300  0.93672697     0.43830
H1764       H  0.56374709  0.26335317  0.79544471     0.43780
C1765       C  0.72730489  0.38257103  0.90300859    -0.05280
C1766       C  0.72335873  0.36217035  0.87046255    -0.32710
C1767       C  0.74139935  0.37070995  0.83403960     0.36540
C1768       C  0.76417177  0.40000935  0.82971740    -0.05640
C1769       C  0.76904119  0.42029291  0.86279090    -0.32610
C1770       C  0.75079215  0.41181046  0.89924149     0.36450
H1771       H  0.70577908  0.33948634  0.87262753     0.16820
O1772       O  0.73694846  0.35017879  0.80303074    -0.60100
H1773       H  0.78650557  0.44295985  0.85970680     0.16830
O1774       O  0.75585870  0.43239359  0.93043421    -0.60200
H1775       H  0.76926853  0.43138297  0.95166238     0.43830
H1776       H  0.71899131  0.34599162  0.78703408     0.43780
C1777       C  0.76579586  0.40917382  0.66989722    -0.05280
C1778       C  0.74440234  0.41682119  0.66657454    -0.32710
C1779       C  0.72522688  0.40762170  0.63111587     0.36540
C1780       C  0.72722645  0.39038963  0.59775101    -0.05640
C1781       C  0.74949717  0.38374091  0.60034057    -0.32610
C1782       C  0.76880541  0.39315711  0.63591783     0.36450
H1783       H  0.74197078  0.42930933  0.69236830     0.16820
O1784       O  0.70419825  0.41510832  0.63013315    -0.60100
H1785       H  0.75165476  0.37073065  0.57514508     0.16830
O1786       O  0.78917638  0.38487628  0.63859035    -0.60200
H1787       H  0.80595688  0.39915551  0.62077034     0.43830
H1788       H  0.68721300  0.39941885  0.64606978     0.43780
C1789       C  0.60063415  0.40687448  0.82733914    -0.05280
C1790       C  0.62959532  0.41323444  0.83069626    -0.32710
C1791       C  0.63856699  0.40348617  0.86581230     0.36540
C1792       C  0.61840897  0.38704876  0.89890523    -0.05640
C1793       C  0.58937551  0.38086450  0.89561298    -0.32610
C1794       C  0.58048528  0.39078676  0.86028576     0.36450
H1795       H  0.64528201  0.42546874  0.80545819     0.16820
O1796       O  0.66708027  0.40988930  0.86692642    -0.60100
H1797       H  0.57345882  0.36820575  0.92034068     0.16830
O1798       O  0.55168798  0.38325740  0.85699592    -0.60200
H1799       H  0.55019279  0.39775199  0.87535634     0.43830
H1800       H  0.66675115  0.39333110  0.85158486     0.43780
C1801       C  0.60964048  0.38207087  0.59461105    -0.05280
C1802       C  0.61978951  0.41200632  0.60031014    -0.32710
C1803       C  0.61103773  0.42194422  0.63619533     0.36540
C1804       C  0.59215860  0.40192759  0.66727542    -0.05640
C1805       C  0.58111207  0.37205090  0.66085890    -0.32610
C1806       C  0.58957295  0.36200635  0.62508854     0.36450
H1807       H  0.63508068  0.42786893  0.57749367     0.16820
O1808       O  0.62257689  0.45139310  0.64211873    -0.60100
H1809       H  0.56647121  0.35644369  0.68453547     0.16830
O1810       O  0.57841216  0.33249607  0.62092221    -0.60200
H1811       H  0.59162435  0.32867546  0.63850540     0.43830
H1812       H  0.60926013  0.45575420  0.62590103     0.43780
C1813       C  0.61326317  0.07511440  0.74975554    -0.05280
C1814       C  0.59764147  0.07825427  0.71555858    -0.32710
C1815       C  0.56683804  0.06323930  0.71541192     0.36540
C1816       C  0.55107635  0.04557589  0.75067955    -0.05640
C1817       C  0.56653153  0.04257661  0.78496825    -0.32610
C1818       C  0.59711406  0.05635750  0.78419347     0.36450
H1819       H  0.60922061  0.09232123  0.68856663     0.16820
O1820       O  0.55219570  0.06460002  0.67975235    -0.60100
H1821       H  0.55466361  0.02885060  0.81216604     0.16830
O1822       O  0.61074239  0.05044017  0.81668931    -0.60200
H1823       H  0.61233987  0.03386358  0.80558516     0.43830
H1824       H  0.55917950  0.08560456  0.67599578     0.43780
C1825       C  0.74619611  0.13447627  0.59472542    -0.05280
C1826       C  0.72517846  0.14274617  0.59914393    -0.32710
C1827       C  0.70592958  0.13337973  0.63449071     0.36540
C1828       C  0.70773307  0.11576353  0.66636358    -0.05640
C1829       C  0.72774815  0.10646870  0.66111261    -0.32610
C1830       C  0.74683472  0.11557528  0.62586612     0.36450
H1831       H  0.72405809  0.15705969  0.57571274     0.16820
O1832       O  0.68688397  0.14322072  0.63917525    -0.60100
H1833       H  0.72922717  0.09276757  0.68533200     0.16830
O1834       O  0.76642872  0.10628453  0.62292394    -0.60200
H1835       H  0.78370142  0.12054622  0.64050880     0.43830
H1836       H  0.66938124  0.12955440  0.62150680     0.43780
C1837       C  0.71130869  0.12502480  0.82669382    -0.05280
C1838       C  0.73616700  0.15334439  0.82868012    -0.32710
C1839       C  0.75519007  0.16271779  0.86430286     0.36540
C1840       C  0.74948380  0.14371344  0.89935410    -0.05640
C1841       C  0.72433648  0.11543975  0.89766499    -0.32610
C1842       C  0.70518841  0.10611669  0.86183827     0.36450
H1843       H  0.74116233  0.16819567  0.80200457     0.16820
O1844       O  0.77964521  0.19039176  0.86393979    -0.60100
H1845       H  0.71950944  0.10047333  0.92410204     0.16830
O1846       O  0.68151505  0.07798795  0.86039179    -0.60200
H1847       H  0.66645352  0.07818049  0.87906897     0.43830
H1848       H  0.79536368  0.18810942  0.85084858     0.43780
C1849       C  0.92333836  0.38717759  0.75389726    -0.05280
C1850       C  0.92058125  0.40271718  0.78890122    -0.32710
C1851       C  0.93696371  0.43332784  0.79060417     0.36540
C1852       C  0.95515445  0.44918783  0.75573444    -0.05640
C1853       C  0.95782260  0.43388187  0.72066963    -0.32610
C1854       C  0.94309424  0.40334475  0.72026457     0.36450
H1855       H  0.90571797  0.39119987  0.81526741     0.16820
O1856       O  0.93488511  0.44754422  0.82640490    -0.60100
H1857       H  0.97191295  0.44574652  0.69374531     0.16830
O1858       O  0.94898416  0.38974541  0.68735954    -0.60200
H1859       H  0.96499445  0.38728292  0.69861175     0.43830
H1860       H  0.95194594  0.45193593  0.84493213     0.43780
C1861       C  0.88028157  0.29167452  0.83295486    -0.05280
C1862       C  0.88855094  0.27079277  0.83548256    -0.32710
C1863       C  0.88055238  0.25216437  0.87082266     0.36540
C1864       C  0.86407674  0.25429304  0.90508139    -0.05640
C1865       C  0.85649919  0.27583305  0.90307324    -0.32610
C1866       C  0.86462494  0.29454677  0.86748324     0.36450
H1867       H  0.90074270  0.26842527  0.80926421     0.16820
O1868       O  0.88845524  0.23151598  0.87081688    -0.60100
H1869       H  0.84383667  0.27792047  0.92880215     0.16830
O1870       O  0.85557497  0.31427316  0.86548438    -0.60200
H1871       H  0.86979286  0.33113894  0.88374587     0.43830
H1872       H  0.87233918  0.21432014  0.85521338     0.43780
C1873       C  0.85878186  0.25361094  0.59952691    -0.05280
C1874       C  0.84539721  0.26991345  0.60783178    -0.32710
C1875       C  0.85390805  0.28892434  0.64381404     0.36540
C1876       C  0.87540418  0.29106741  0.67264586    -0.05640
C1877       C  0.88907489  0.27514418  0.66388096    -0.32610
C1878       C  0.88100881  0.25664804  0.62758094     0.36450
H1879       H  0.82817684  0.26772887  0.58653911     0.16820
O1880       O  0.83997994  0.30399689  0.65187772    -0.60100
H1881       H  0.90559634  0.27654153  0.68594930     0.16830
O1882       O  0.89381499  0.24037608  0.62117116    -0.60200
H1883       H  0.88040533  0.22144319  0.63530645     0.43830
H1884       H  0.85061272  0.32194900  0.63429417     0.43780
C1885       C  0.92250696  0.07159726  0.74972681    -0.05280
C1886       C  0.94232018  0.07720651  0.78394633    -0.32710
C1887       C  0.95804187  0.06288595  0.78611965     0.36540
C1888       C  0.95495679  0.04324844  0.75290682    -0.05640
C1889       C  0.93547481  0.03775676  0.71850675    -0.32610
C1890       C  0.91880445  0.05110674  0.71719390     0.36450
H1891       H  0.94582346  0.09284017  0.80933175     0.16820
O1892       O  0.47515034  0.06689843  0.82188879    -0.60100
H1893       H  0.93269845  0.02248351  0.69291147     0.16830
O1894       O  0.89772040  0.04258996  0.68550100    -0.60200
H1895       H  0.90858601  0.04910064  0.65777142     0.43830
H1896       H  0.48940586  0.08825394  0.82425714     0.43780
C1897       C  0.86389692  0.14197673  0.59443958    -0.05280
C1898       C  0.84723294  0.11240655  0.60644283    -0.32710
C1899       C  0.85541425  0.10229786  0.64225501     0.36540
C1900       C  0.88031825  0.12185611  0.66693739    -0.05640
C1901       C  0.89781440  0.15090457  0.65397594    -0.32610
C1902       C  0.88996759  0.16108815  0.61786397     0.36450
H1903       H  0.82731505  0.09723824  0.58886218     0.16820
O1904       O  0.83812544  0.07362717  0.65421154    -0.60100
H1905       H  0.91737599  0.16589648  0.67244958     0.16830
O1906       O  0.90829220  0.18945402  0.60491502    -0.60200
H1907       H  0.91166441  0.20199715  0.63080761     0.43830
H1908       H  0.84701362  0.06335904  0.63998527     0.43780
C1909       C  0.85970571  0.13948043  0.90173162    -0.05280
C1910       C  0.88393480  0.15985912  0.87748940    -0.32710
C1911       C  0.89238251  0.15100714  0.84016468     0.36540
C1912       C  0.87716895  0.12130070  0.82752312    -0.05640
C1913       C  0.85383610  0.10070781  0.85282942    -0.32610
C1914       C  0.84490155  0.10963190  0.88953053     0.36450
H1915       H  0.89562062  0.18283613  0.88653966     0.16820
O1916       O  0.91561133  0.17147498  0.81626513    -0.60100
H1917       H  0.84202011  0.07778837  0.84339007     0.16830
O1918       O  0.82151477  0.08904699  0.91305237    -0.60200
H1919       H  0.83033936  0.08359474  0.93664415     0.43830
H1920       H  0.90721579  0.18008385  0.79707360     0.43780
C1921       C  0.90629762  0.58748746  0.24853704     0.03320
C1922       C  0.89727463  0.59464676  0.28735816    -0.12830
C1923       C  0.88458065  0.61194318  0.28677633     0.00820
C1924       C  0.87919245  0.62074613  0.24713368    -0.11360
C1925       C  0.88686648  0.61285009  0.20823267     0.03310
C1926       C  0.90109825  0.59702752  0.20898330    -0.10780
H1927       H  0.90057058  0.58733073  0.31824178     0.08900
H1928       H  0.86884023  0.63363545  0.24653654     0.06430
H1929       H  0.90870701  0.59299732  0.17871352     0.06280
C1930       C  0.90628526  0.85443284  0.25356283     0.03320
C1931       C  0.89580997  0.83835601  0.21433627    -0.12830
C1932       C  0.88239440  0.80783600  0.21379220     0.00820
C1933       C  0.87728470  0.79301163  0.25282563    -0.11360
C1934       C  0.88598921  0.80828927  0.29239420     0.03310
C1935       C  0.90095104  0.83896613  0.29259749    -0.10780
H1936       H  0.89861014  0.84940217  0.18398076     0.08900
H1937       H  0.86642175  0.76934494  0.25232073     0.06430
H1938       H  0.90922695  0.85064578  0.32309740     0.06280
O1939       O  0.76930031  0.66568331  0.03383877    -0.85160
O1940       O  0.82111853  0.71556089  0.05732110    -0.82210
C1941       C  0.84833537  0.73232978  0.06320789     0.98300
O1942       O  0.86664951  0.73126028  0.03810764    -0.82240
O1943       O  0.86383428  0.67989610  0.05540559    -0.84890
C1944       C  0.85328778  0.65282963  0.05899531     1.02830
O1945       O  0.83367469  0.63500087  0.03261196    -0.77650
O1946       O  0.78474076  0.63672745  0.05319427    -0.77840
C1947       C  0.76784115  0.64628325  0.05882218     1.02780
O1948       O  0.78649596  0.68030432  0.44432122    -0.85160
O1949       O  0.83496550  0.73209378  0.46817147    -0.82220
C1950       C  0.85393837  0.73358477  0.44178369     0.98320
O1951       O  0.86437802  0.71744915  0.44660563    -0.82250
O1952       O  0.86707092  0.66922006  0.46415560    -0.84860
C1953       C  0.84901899  0.64966348  0.43796316     1.02790
O1954       O  0.82178567  0.63855669  0.44253459    -0.77680
O1955       O  0.76987870  0.63497762  0.46260954    -0.77820
C1956       C  0.76968911  0.65337982  0.43723257     1.02750
Cr1957     Cr  0.80437411  0.69687158  0.50091886     1.93740
Cr1958     Cr  0.86255136  0.69799685  0.50105238     1.93210
Cr1959     Cr  0.80398808  0.63929406  0.49792996     1.39100
O1960       O  0.82368108  0.67805966  0.50017931    -1.22910
C1961       C  0.64606969  0.59084397  0.24855776     0.03320
C1962       C  0.66286193  0.60171585  0.28700670    -0.12830
C1963       C  0.69352588  0.61499193  0.28628256     0.00820
C1964       C  0.70768158  0.61909961  0.24648502    -0.11360
C1965       C  0.69164303  0.60984046  0.20768817     0.03310
C1966       C  0.66087946  0.59523695  0.20883667    -0.10780
H1967       H  0.65229898  0.60036588  0.31757149     0.08900
H1968       H  0.73143259  0.62976320  0.24562386     0.06430
H1969       H  0.64865507  0.58690546  0.17879279     0.06280
O1970       O  0.70496198  0.85982901  0.03495983    -0.85160
O1971       O  0.65262292  0.81071641  0.05546507    -0.82210
C1972       C  0.62541072  0.79333152  0.05974269     0.98300
O1973       O  0.60751557  0.79382175  0.03304943    -0.82240
O1974       O  0.61036524  0.84509358  0.05271029    -0.84890
C1975       C  0.62074075  0.87202957  0.05822306     1.02830
O1976       O  0.64037912  0.89021083  0.03281037    -0.77650
O1977       O  0.68886687  0.88818158  0.05574563    -0.77840
C1978       C  0.70589872  0.87879179  0.06110313     1.02780
O1979       O  0.68912912  0.84558109  0.44461439    -0.85160
O1980       O  0.63999650  0.79367625  0.46531747    -0.82220
C1981       C  0.62119841  0.79204408  0.43837922     0.98320
O1982       O  0.61137824  0.80881772  0.44239393    -0.82250
O1983       O  0.60886095  0.85737964  0.46187630    -0.84860
C1984       C  0.62763573  0.87644192  0.43639678     1.02790
O1985       O  0.65459547  0.88707859  0.44313880    -0.77680
O1986       O  0.70571254  0.89069100  0.46595536    -0.77820
C1987       C  0.70637207  0.87260506  0.43969419     1.02750
Cr1988     Cr  0.67030046  0.82882515  0.50004208     1.93740
Cr1989     Cr  0.61234344  0.82773683  0.49761559     1.93210
Cr1990     Cr  0.67092320  0.88622804  0.49943442     1.39100
O1991       O  0.65115424  0.84759294  0.49907852    -1.22910
C1992       C  0.56700914  0.93717652  0.25090066     0.03320
C1993       C  0.57157127  0.92709549  0.21082377    -0.12830
C1994       C  0.58648872  0.91192660  0.20893915     0.00820
C1995       C  0.59573138  0.90545250  0.24730139    -0.11360
C1996       C  0.59125347  0.91488376  0.28739160     0.03310
C1997       C  0.57795929  0.93163932  0.28894939    -0.10780
H1998       H  0.56303538  0.93029306  0.18095763     0.08900
H1999       H  0.60646794  0.89292475  0.24591706     0.06430
H2000       H  0.57669033  0.94055046  0.31990654     0.06280
C2001       C  0.82832241  0.93385419  0.25134460     0.03320
C2002       C  0.81310059  0.92987053  0.21202992    -0.12830
C2003       C  0.78231075  0.91515222  0.21106609     0.00820
C2004       C  0.76669824  0.90562196  0.24986621    -0.11360
C2005       C  0.78135654  0.90992418  0.28932478     0.03310
C2006       C  0.81204460  0.92371448  0.28995556    -0.10780
H2007       H  0.82500427  0.93869608  0.18221406     0.08900
H2008       H  0.74292306  0.89472586  0.24935094     0.06430
H2009       H  0.82304259  0.92607138  0.32056675     0.06280
C2010       C  0.56323222  0.67091862  0.24635711     0.03320
C2011       C  0.56865872  0.68631092  0.28601432    -0.12830
C2012       C  0.58331951  0.71685250  0.28703538     0.00820
C2013       C  0.59194052  0.73232697  0.24834537    -0.11360
C2014       C  0.58695288  0.71763429  0.20854553     0.03310
C2015       C  0.57287224  0.68698835  0.20763281    -0.10780
H2016       H  0.56130179  0.67469220  0.31629555     0.08900
H2017       H  0.60289002  0.75599124  0.24930788     0.06430
H2018       H  0.57035252  0.67599372  0.17688829     0.06280
C2019       C  0.97155589  0.52775833  0.25406185     0.02470
C2020       C  0.95601628  0.99675811  0.25573666     0.02470
C2021       C  0.97154922  0.98186068  0.25535631     0.02470
C2022       C  0.50262781  0.99796240  0.25302848     0.02470
C2023       C  0.51825575  0.52894844  0.25163009     0.02470
C2024       C  0.50273134  0.54390311  0.25217530     0.02470
C2025       C  0.51907076  0.57652442  0.25006696    -0.05280
C2026       C  0.51389351  0.59010578  0.21547822    -0.32710
C2027       C  0.52788132  0.62062832  0.21364621     0.36540
C2028       C  0.54833357  0.63832499  0.24617745    -0.05640
C2029       C  0.55387233  0.62453301  0.28026548    -0.32610
C2030       C  0.53906075  0.59401858  0.28286918     0.36450
H2031       H  0.99842819  0.57688945  0.19011287     0.16820
O2032       O  0.51990971  0.63273027  0.18153787    -0.60100
H2033       H  0.56953339  0.63738427  0.30559563     0.16830
O2034       O  0.54257944  0.58138134  0.31904153    -0.60200
H2035       H  0.56397438  0.58921908  0.32172693     0.43830
H2036       H  0.02744004  0.62910587  0.15424059     0.43780
C2037       C  0.86107828  0.94918916  0.25252875    -0.05280
C2038       C  0.87664820  0.96771644  0.28788785    -0.32710
C2039       C  0.90737398  0.98251960  0.29005490     0.36540
C2040       C  0.92322672  0.97978331  0.25578514    -0.05640
C2041       C  0.90788653  0.96114714  0.22068341    -0.32610
C2042       C  0.87712865  0.94549279  0.21917226     0.36450
H2043       H  0.86507714  0.97102192  0.31403494     0.16820
O2044       O  0.92181541  0.49876641  0.32638539    -0.60100
H2045       H  0.91987323  0.95857545  0.19437409     0.16830
O2046       O  0.86302272  0.92548276  0.18622867    -0.60200
H2047       H  0.86776108  0.93709751  0.15937620     0.43830
H2048       H  0.91562013  0.51320773  0.33020218     0.43780
C2049       C  0.55076037  0.95315521  0.25255837    -0.05280
C2050       C  0.55224560  0.97026616  0.21710269    -0.32710
C2051       C  0.53585336  0.98385470  0.21621616     0.36540
C2052       C  0.51900224  0.98229623  0.25228557    -0.05640
C2053       C  0.51785247  0.96594959  0.28813998    -0.32610
C2054       C  0.53280817  0.95085542  0.28814298     0.36450
H2055       H  0.56605408  0.97317302  0.18957111     0.16820
O2056       O  0.03650882  0.99873522  0.17992772    -0.60100
H2057       H  0.50479441  0.46446081  0.31602714     0.16830
O2058       O  0.52887350  0.93335853  0.32273199    -0.60200
H2059       H  0.51249306  0.41363018  0.31412199     0.43830
H2060       H  0.02066842  0.98387951  0.16082942     0.43780
C2061       C  0.61504017  0.77225962  0.09604486    -0.05280
C2062       C  0.63539484  0.77562378  0.12812156    -0.32710
C2063       C  0.62661095  0.75731740  0.16398030     0.36540
C2064       C  0.59705640  0.73485895  0.16832503    -0.05640
C2065       C  0.57679843  0.73052402  0.13565125    -0.32610
C2066       C  0.58555419  0.74901891  0.09969850     0.36450
H2067       H  0.65827884  0.79291202  0.12600411     0.16820
O2068       O  0.64717178  0.76120599  0.19442305    -0.60100
H2069       H  0.55394835  0.71330229  0.13869302     0.16830
O2070       O  0.56498800  0.74443258  0.06890352    -0.60200
H2071       H  0.56577029  0.73104734  0.04719225     0.43830
H2072       H  0.65175304  0.77910287  0.21098092     0.43780
C2073       C  0.61005787  0.77033893  0.40214399    -0.05280
C2074       C  0.58662542  0.76704655  0.37647124    -0.32710
C2075       C  0.57703611  0.74879591  0.33982912     0.36540
C2076       C  0.59053370  0.73310066  0.32848711    -0.05640
C2077       C  0.61301738  0.73519958  0.35480703    -0.32610
C2078       C  0.62284722  0.75364978  0.39145539     0.36450
H2079       H  0.57600466  0.77915356  0.38416187     0.16820
O2080       O  0.55443958  0.74640752  0.31517571    -0.60100
H2081       H  0.62369751  0.72331284  0.34598617     0.16830
O2082       O  0.64585726  0.75621532  0.41516685    -0.60200
H2083       H  0.63670035  0.74034297  0.43672682     0.43830
H2084       H  0.56374708  0.76335319  0.29544468     0.43780
C2085       C  0.72730482  0.88257104  0.40300864    -0.05280
C2086       C  0.72335867  0.86217039  0.37046258    -0.32710
C2087       C  0.74139931  0.87071000  0.33403965     0.36540
C2088       C  0.76417172  0.90000941  0.32971749    -0.05640
C2089       C  0.76904112  0.92029296  0.36279100    -0.32610
C2090       C  0.75079207  0.91181048  0.39924157     0.36450
H2091       H  0.70577903  0.83948637  0.37262754     0.16820
O2092       O  0.73694844  0.85017886  0.30303078    -0.60100
H2093       H  0.78650550  0.94295989  0.35970692     0.16830
O2094       O  0.75585859  0.93239360  0.43043430    -0.60200
H2095       H  0.76926842  0.93138298  0.45166248     0.43830
H2096       H  0.71899128  0.84599167  0.28703413     0.43780
C2097       C  0.76579586  0.90917383  0.16989730    -0.05280
C2098       C  0.74440233  0.91682118  0.16657460    -0.32710
C2099       C  0.72522689  0.90762171  0.13111591     0.36540
C2100       C  0.72722649  0.89038965  0.09775105    -0.05640
C2101       C  0.74949720  0.88374093  0.10034063    -0.32610
C2102       C  0.76880542  0.89315712  0.13591792     0.36450
H2103       H  0.74197075  0.92930932  0.19236835     0.16820
O2104       O  0.70419825  0.91510831  0.13013318    -0.60100
H2105       H  0.75165481  0.87073068  0.07514515     0.16830
O2106       O  0.78917639  0.88487629  0.13859048    -0.60200
H2107       H  0.80595690  0.89915552  0.12077046     0.43830
H2108       H  0.68721299  0.89941881  0.14606976     0.43780
C2109       C  0.60063413  0.90687437  0.32733911    -0.05280
C2110       C  0.62959531  0.91323439  0.33069634    -0.32710
C2111       C  0.63856693  0.90348609  0.36581239     0.36540
C2112       C  0.61840887  0.88704859  0.39890523    -0.05640
C2113       C  0.58937539  0.88086425  0.39561284    -0.32610
C2114       C  0.58048519  0.89078653  0.36028560     0.36450
H2115       H  0.64528204  0.92546876  0.30545835     0.16820
O2116       O  0.66708024  0.90988930  0.36692663    -0.60100
H2117       H  0.57345865  0.86820543  0.42034046     0.16830
O2118       O  0.55168787  0.88325711  0.35699562    -0.60200
H2119       H  0.55019262  0.89775169  0.37535595     0.43830
H2120       H  0.66675120  0.89333112  0.35158507     0.43780
C2121       C  0.60964061  0.88207104  0.09461100    -0.05280
C2122       C  0.61978970  0.91200650  0.10031020    -0.32710
C2123       C  0.61103790  0.92194438  0.13619540     0.36540
C2124       C  0.59215869  0.90192772  0.16727540    -0.05640
C2125       C  0.58111210  0.87205102  0.16085876    -0.32610
C2126       C  0.58957300  0.86200650  0.12508839     0.36450
H2127       H  0.63508094  0.92786913  0.07749381     0.16820
O2128       O  0.62257714  0.95139326  0.14211892    -0.60100
H2129       H  0.56647117  0.85644379  0.18453526     0.16830
O2130       O  0.57841213  0.83249621  0.12092197    -0.60200
H2131       H  0.59162427  0.82867552  0.13850517     0.43830
H2132       H  0.60926043  0.95575444  0.12590124     0.43780
C2133       C  0.61326314  0.57511437  0.24975534    -0.05280
C2134       C  0.59764138  0.57825407  0.21555827    -0.32710
C2135       C  0.56683795  0.56323909  0.21541167     0.36540
C2136       C  0.55107631  0.54557588  0.25067948    -0.05640
C2137       C  0.56653154  0.54257676  0.28496828    -0.32610
C2138       C  0.59711406  0.55635764  0.28419345     0.36450
H2139       H  0.60922049  0.59232090  0.18856618     0.16820
O2140       O  0.55219556  0.56459965  0.17975204    -0.60100
H2141       H  0.55466364  0.52885092  0.31216621     0.16830
O2142       O  0.61074241  0.55044045  0.31668942    -0.60200
H2143       H  0.61233984  0.53386378  0.30558551     0.43830
H2144       H  0.55917925  0.58560416  0.17599538     0.43780
C2145       C  0.74619617  0.63447633  0.09472529    -0.05280
C2146       C  0.72517850  0.64274621  0.09914378    -0.32710
C2147       C  0.70592959  0.63337973  0.13449051     0.36540
C2148       C  0.70773306  0.61576351  0.16636336    -0.05640
C2149       C  0.72774814  0.60646869  0.16111240    -0.32610
C2150       C  0.74683474  0.61557532  0.12586596     0.36450
H2151       H  0.72405814  0.65705976  0.07571260     0.16820
O2152       O  0.68688396  0.64322071  0.13917504    -0.60100
H2153       H  0.72922714  0.59276754  0.18533178     0.16830
O2154       O  0.76642875  0.60628458  0.12292379    -0.60200
H2155       H  0.78370143  0.62054625  0.14050869     0.43830
H2156       H  0.66938124  0.62955438  0.12150659     0.43780
C2157       C  0.71130867  0.62502478  0.32669360    -0.05280
C2158       C  0.73616701  0.65334435  0.32867992    -0.32710
C2159       C  0.75519006  0.66271772  0.36430269     0.36540
C2160       C  0.74948374  0.64371336  0.39935393    -0.05640
C2161       C  0.72433639  0.61543969  0.39766480    -0.32610
C2162       C  0.70518835  0.60611666  0.36183806     0.36450
H2163       H  0.74116238  0.66819563  0.30200437     0.16820
O2164       O  0.77964524  0.69039167  0.36393963    -0.60100
H2165       H  0.71950931  0.60047326  0.42410185     0.16830
O2166       O  0.68151496  0.57798794  0.36039155    -0.60200
H2167       H  0.66645343  0.57818050  0.37906872     0.43830
H2168       H  0.79536369  0.68810929  0.35084847     0.43780
C2169       C  0.92333832  0.88717760  0.25389737    -0.05280
C2170       C  0.92058123  0.90271719  0.28890133    -0.32710
C2171       C  0.93696371  0.93332784  0.29060431     0.36540
C2172       C  0.95515446  0.94918784  0.25573458    -0.05640
C2173       C  0.95782260  0.93388188  0.22066976    -0.32610
C2174       C  0.94309422  0.90334476  0.22026468     0.36450
H2175       H  0.90571794  0.89119988  0.31526752     0.16820
O2176       O  0.93488512  0.94754423  0.32640504    -0.60100
H2177       H  0.97191295  0.94574652  0.19374544     0.16830
O2178       O  0.94898413  0.88974541  0.18735965    -0.60200
H2179       H  0.96499440  0.88728290  0.19861187     0.43830
H2180       H  0.95194596  0.95193596  0.34493224     0.43780
C2181       C  0.88028145  0.79167447  0.33295485    -0.05280
C2182       C  0.88855084  0.77079274  0.33548254    -0.32710
C2183       C  0.88055228  0.75216432  0.37082262     0.36540
C2184       C  0.86407661  0.75429295  0.40508134    -0.05640
C2185       C  0.85649904  0.77583295  0.40307319    -0.32610
C2186       C  0.86462479  0.79454669  0.36748321     0.36450
H2187       H  0.90074263  0.76842526  0.30926420     0.16820
O2188       O  0.88845516  0.73151595  0.37081683    -0.60100
H2189       H  0.84383649  0.77792034  0.42880209     0.16830
O2190       O  0.85557480  0.81427305  0.36548436    -0.60200
H2191       H  0.86979267  0.83113883  0.38374586     0.43830
H2192       H  0.87233912  0.71432011  0.35521330     0.43780
C2193       C  0.85878195  0.75361105  0.09952683    -0.05280
C2194       C  0.84539730  0.76991355  0.10783168    -0.32710
C2195       C  0.85390809  0.78892442  0.14381397     0.36540
C2196       C  0.87540419  0.79106746  0.17264584    -0.05640
C2197       C  0.88907490  0.77514424  0.16388096    -0.32610
C2198       C  0.88100886  0.75664812  0.12758091     0.36450
H2199       H  0.82817695  0.76772899  0.08653897     0.16820
O2200       O  0.83997997  0.80399696  0.15187762    -0.60100
H2201       H  0.90559633  0.77654157  0.18594933     0.16830
O2202       O  0.89381505  0.74037617  0.12117116    -0.60200
H2203       H  0.88040539  0.72144327  0.13530642     0.43830
H2204       H  0.85061277  0.82194909  0.13429410     0.43780
C2205       C  0.92250701  0.57159734  0.24972679    -0.05280
C2206       C  0.94232023  0.57720659  0.28394633    -0.32710
C2207       C  0.95804190  0.56288602  0.28611969     0.36540
C2208       C  0.95495680  0.54324848  0.25290691    -0.05640
C2209       C  0.93547483  0.53775678  0.21850682    -0.32610
C2210       C  0.91880449  0.55110679  0.21719391     0.36450
H2211       H  0.94582351  0.59284027  0.30933173     0.16820
O2212       O  0.47515037  0.56689851  0.32188882    -0.60100
H2213       H  0.93269845  0.52248351  0.19291157     0.16830
O2214       O  0.89772046  0.54259002  0.18550099    -0.60200
H2215       H  0.90858609  0.54910071  0.15777142     0.43830
H2216       H  0.48940589  0.58825401  0.32425714     0.43780
C2217       C  0.86389700  0.64197681  0.09443951    -0.05280
C2218       C  0.84723302  0.61240663  0.10644277    -0.32710
C2219       C  0.85541432  0.60229794  0.14225494     0.36540
C2220       C  0.88031833  0.62185619  0.16693732    -0.05640
C2221       C  0.89781448  0.65090465  0.15397586    -0.32610
C2222       C  0.88996767  0.66108823  0.11786390     0.36450
H2223       H  0.82731512  0.59723833  0.08886212     0.16820
O2224       O  0.83812550  0.57362726  0.15421148    -0.60100
H2225       H  0.91737607  0.66589655  0.17244950     0.16830
O2226       O  0.90829229  0.68945410  0.10491495    -0.60200
H2227       H  0.91166446  0.70199722  0.13080753     0.43830
H2228       H  0.84701369  0.56335912  0.13998522     0.43780
C2229       C  0.85970563  0.63948038  0.40173153    -0.05280
C2230       C  0.88393472  0.65985909  0.37748934    -0.32710
C2231       C  0.89238246  0.65100715  0.34016462     0.36540
C2232       C  0.87716892  0.62130071  0.32752303    -0.05640
C2233       C  0.85383607  0.60070780  0.35282930    -0.32610
C2234       C  0.84490149  0.60963185  0.38953041     0.36450
H2235       H  0.89562052  0.68283610  0.38653963     0.16820
O2236       O  0.91561128  0.67147501  0.31626510    -0.60100
H2237       H  0.84202009  0.57778836  0.34338992     0.16830
O2238       O  0.82151471  0.58904693  0.41305222    -0.60200
H2239       H  0.83033930  0.58359467  0.43664400     0.43830
H2240       H  0.90721575  0.68008388  0.29707357     0.43780
C2241       C  0.90629760  0.58748743  0.74853702     0.03320
C2242       C  0.89727462  0.59464673  0.78735815    -0.12830
C2243       C  0.88458065  0.61194316  0.78677633     0.00820
C2244       C  0.87919243  0.62074611  0.74713369    -0.11360
C2245       C  0.88686644  0.61285006  0.70823266     0.03310
C2246       C  0.90109821  0.59702748  0.70898327    -0.10780
H2247       H  0.90057059  0.58733071  0.81824176     0.08900
H2248       H  0.86884022  0.63363542  0.74653656     0.06430
H2249       H  0.90870695  0.59299727  0.67871349     0.06280
C2250       C  0.90628536  0.85443283  0.75356275     0.03320
C2251       C  0.89581004  0.83835599  0.71433621    -0.12830
C2252       C  0.88239446  0.80783597  0.71379217     0.00820
C2253       C  0.87728478  0.79301162  0.75282561    -0.11360
C2254       C  0.88598933  0.80828928  0.79239417     0.03310
C2255       C  0.90095116  0.83896614  0.79259742    -0.10780
H2256       H  0.89861020  0.84940214  0.68398069     0.08900
H2257       H  0.86642183  0.76934494  0.75232074     0.06430
H2258       H  0.90922709  0.85064580  0.82309732     0.06280
O2259       O  0.76930024  0.66568326  0.53383876    -0.85160
O2260       O  0.82111846  0.71556083  0.55732112    -0.82210
C2261       C  0.84833531  0.73232972  0.56320790     0.98300
O2262       O  0.86664944  0.73126023  0.53810763    -0.82240
O2263       O  0.86383422  0.67989605  0.55540557    -0.84890
C2264       C  0.85328771  0.65282958  0.55899530     1.02830
O2265       O  0.83367462  0.63500081  0.53261195    -0.77650
O2266       O  0.78474069  0.63672739  0.55319425    -0.77840
C2267       C  0.76784109  0.64628320  0.55882218     1.02780
O2268       O  0.78649603  0.68030436  0.94432123    -0.85160
O2269       O  0.83496557  0.73209383  0.96817145    -0.82220
C2270       C  0.85393845  0.73358482  0.94178369     0.98320
O2271       O  0.86437810  0.71744920  0.94660565    -0.82250
O2272       O  0.86707098  0.66922011  0.96415561    -0.84860
C2273       C  0.84901905  0.64966352  0.93796317     1.02790
O2274       O  0.82178574  0.63855673  0.94253461    -0.77680
O2275       O  0.76987876  0.63497766  0.96260958    -0.77820
C2276       C  0.76968917  0.65337986  0.93723260     1.02750
Cr2277     Cr  0.80437418  0.69687163  0.00091886     1.93740
Cr2278     Cr  0.86255143  0.69799690  0.00105240     1.93210
Cr2279     Cr  0.80398815  0.63929411  0.99792998     1.39100
O2280       O  0.82368115  0.67805971  0.00017932    -1.22910
C2281       C  0.64606970  0.59084393  0.74855786     0.03320
C2282       C  0.66286193  0.60171576  0.78700681    -0.12830
C2283       C  0.69352589  0.61499187  0.78628265     0.00820
C2284       C  0.70768159  0.61909960  0.74648511    -0.11360
C2285       C  0.69164305  0.60984047  0.70768826     0.03310
C2286       C  0.66087948  0.59523696  0.70883676    -0.10780
H2287       H  0.65229897  0.60036572  0.81757162     0.08900
H2288       H  0.73143261  0.62976321  0.74562395     0.06430
H2289       H  0.64865508  0.58690550  0.67879288     0.06280
O2290       O  0.70496194  0.85982895  0.53495983    -0.85160
O2291       O  0.65262291  0.81071632  0.55546507    -0.82210
C2292       C  0.62541072  0.79333143  0.55974270     0.98300
O2293       O  0.60751555  0.79382165  0.53304946    -0.82240
O2294       O  0.61036518  0.84509346  0.55271034    -0.84890
C2295       C  0.62074067  0.87202944  0.55822309     1.02830
O2296       O  0.64037903  0.89021071  0.53281040    -0.77650
O2297       O  0.68886680  0.88818150  0.55574568    -0.77840
C2298       C  0.70589868  0.87879173  0.56110314     1.02780
O2299       O  0.68912916  0.84558113  0.94461439    -0.85160
O2300       O  0.63999651  0.79367632  0.96531749    -0.82220
C2301       C  0.62119842  0.79204415  0.93837922     0.98320
O2302       O  0.61137828  0.80881781  0.94239390    -0.82250
O2303       O  0.60886103  0.85737976  0.96187627    -0.84860
C2304       C  0.62763581  0.87644205  0.93639676     1.02790
O2305       O  0.65459554  0.88707870  0.94313875    -0.77680
O2306       O  0.70571260  0.89069105  0.96595531    -0.77820
C2307       C  0.70637212  0.87260509  0.93969417     1.02750
Cr2308     Cr  0.67030049  0.82882521  0.00004209     1.93740
Cr2309     Cr  0.61234349  0.82773694  0.99761555     1.93210
Cr2310     Cr  0.67092327  0.88622813  0.99943437     1.39100
O2311       O  0.65115428  0.84759303  0.99907848    -1.22910
C2312       C  0.56700897  0.93717636  0.75090052     0.03320
C2313       C  0.57157116  0.92709537  0.71082366    -0.12830
C2314       C  0.58648867  0.91192653  0.70893912     0.00820
C2315       C  0.59573137  0.90545251  0.74730139    -0.11360
C2316       C  0.59125341  0.91488376  0.78739158     0.03310
C2317       C  0.57795910  0.93163921  0.78894930    -0.10780
H2318       H  0.56303528  0.93029294  0.68095751     0.08900
H2319       H  0.60646799  0.89292482  0.74591711     0.06430
H2320       H  0.57669000  0.94055030  0.81990643     0.06280
C2321       C  0.82832242  0.93385412  0.75134453     0.03320
C2322       C  0.81310059  0.92987047  0.71202986    -0.12830
C2323       C  0.78231075  0.91515217  0.71106605     0.00820
C2324       C  0.76669825  0.90562190  0.74986618    -0.11360
C2325       C  0.78135656  0.90992411  0.78932474     0.03310
C2326       C  0.81204461  0.92371441  0.78995550    -0.10780
H2327       H  0.82500427  0.93869602  0.68221400     0.08900
H2328       H  0.74292307  0.89472581  0.74935092     0.06430
H2329       H  0.82304261  0.92607130  0.82056668     0.06280
C2330       C  0.56323222  0.67091860  0.74635721     0.03320
C2331       C  0.56865872  0.68631091  0.78601442    -0.12830
C2332       C  0.58331951  0.71685249  0.78703547     0.00820
C2333       C  0.59194054  0.73232696  0.74834546    -0.11360
C2334       C  0.58695290  0.71763427  0.70854562     0.03310
C2335       C  0.57287225  0.68698833  0.70763291    -0.10780
H2336       H  0.56130179  0.67469218  0.81629565     0.08900
H2337       H  0.60289004  0.75599122  0.74930797     0.06430
H2338       H  0.57035253  0.67599370  0.67688839     0.06280
C2339       C  0.97155590  0.52775832  0.75406170     0.02470
C2340       C  0.95601629  0.99675808  0.75573656     0.02470
C2341       C  0.97154923  0.98186067  0.75535619     0.02470
C2342       C  0.50262782  0.99796238  0.75302840     0.02470
C2343       C  0.51825576  0.52894842  0.75163002     0.02470
C2344       C  0.50273136  0.54390310  0.75217524     0.02470
C2345       C  0.51907077  0.57652440  0.75006697    -0.05280
C2346       C  0.51389350  0.59010579  0.71547828    -0.32710
C2347       C  0.52788130  0.62062832  0.71364630     0.36540
C2348       C  0.54833356  0.63832498  0.74617754    -0.05640
C2349       C  0.55387233  0.62453298  0.78026554    -0.32610
C2350       C  0.53906076  0.59401855  0.78286920     0.36450
H2351       H  0.99842818  0.57688948  0.69011290     0.16820
O2352       O  0.51990968  0.63273029  0.68153800    -0.60100
H2353       H  0.56953339  0.63738424  0.80559569     0.16830
O2354       O  0.54257947  0.58138129  0.81904150    -0.60200
H2355       H  0.56397441  0.58921900  0.82172681     0.43830
H2356       H  0.02743999  0.62910590  0.65424067     0.43780
C2357       C  0.86107829  0.94918910  0.75252866    -0.05280
C2358       C  0.87664821  0.96771637  0.78788778    -0.32710
C2359       C  0.90737398  0.98251954  0.79005481     0.36540
C2360       C  0.92322672  0.97978328  0.75578504    -0.05640
C2361       C  0.90788654  0.96114711  0.72068330    -0.32610
C2362       C  0.87712866  0.94549275  0.71917217     0.36450
H2363       H  0.86507714  0.97102184  0.81403487     0.16820
O2364       O  0.92181543  0.49876635  0.82638517    -0.60100
H2365       H  0.91987324  0.95857543  0.69437397     0.16830
O2366       O  0.86302272  0.92548272  0.68622857    -0.60200
H2367       H  0.86776108  0.93709747  0.65937610     0.43830
H2368       H  0.91562013  0.51320765  0.83020202     0.43780
C2369       C  0.55076018  0.95315501  0.75255817    -0.05280
C2370       C  0.55224570  0.97026622  0.71710269    -0.32710
C2371       C  0.53585355  0.98385484  0.71621619     0.36540
C2372       C  0.51900223  0.98229620  0.75228546    -0.05640
C2373       C  0.51785216  0.96594925  0.78813966    -0.32610
C2374       C  0.53280774  0.95085496  0.78814255     0.36450
H2375       H  0.56605434  0.97317320  0.68957126     0.16820
O2376       O  0.03650910  0.99873547  0.67992780    -0.60100
H2377       H  0.50479344  0.46445978  0.81602629     0.16830
O2378       O  0.52887271  0.93335767  0.82273120    -0.60200
H2379       H  0.51249164  0.41362869  0.81411943     0.43830
H2380       H  0.02066856  0.98387990  0.66082954     0.43780
C2381       C  0.61504018  0.77225955  0.59604490    -0.05280
C2382       C  0.63539485  0.77562375  0.62812161    -0.32710
C2383       C  0.62661097  0.75731738  0.66398038     0.36540
C2384       C  0.59705642  0.73485892  0.66832512    -0.05640
C2385       C  0.57679845  0.73052396  0.63565132    -0.32610
C2386       C  0.58555421  0.74901882  0.59969854     0.36450
H2387       H  0.65827884  0.79291200  0.62600416     0.16820
O2388       O  0.64717179  0.76120600  0.69442315    -0.60100
H2389       H  0.55394838  0.71330222  0.63869308     0.16830
O2390       O  0.56498802  0.74443246  0.56890354    -0.60200
H2391       H  0.56577032  0.73104723  0.54719229     0.43830
H2392       H  0.65175304  0.77910289  0.71098099     0.43780
C2393       C  0.61005788  0.77033897  0.90214403    -0.05280
C2394       C  0.58662541  0.76704657  0.87647127    -0.32710
C2395       C  0.57703610  0.74879590  0.83982918     0.36540
C2396       C  0.59053369  0.73310065  0.82848720    -0.05640
C2397       C  0.61301738  0.73519959  0.85480712    -0.32610
C2398       C  0.62284722  0.75364982  0.89145546     0.36450
H2399       H  0.57600466  0.77915358  0.88416189     0.16820
O2400       O  0.55443956  0.74640750  0.81517577    -0.60100
H2401       H  0.62369750  0.72331285  0.84598629     0.16830
O2402       O  0.64585726  0.75621537  0.91516692    -0.60200
H2403       H  0.63670036  0.74034303  0.93672691     0.43830
H2404       H  0.56374706  0.76335315  0.79544470     0.43780
C2405       C  0.72730487  0.88257104  0.90300862    -0.05280
C2406       C  0.72335871  0.86217037  0.87046259    -0.32710
C2407       C  0.74139934  0.87070996  0.83403965     0.36540
C2408       C  0.76417176  0.90000937  0.82971746    -0.05640
C2409       C  0.76904117  0.92029293  0.86279095    -0.32610
C2410       C  0.75079213  0.91181048  0.89924153     0.36450
H2411       H  0.70577907  0.83948635  0.87262757     0.16820
O2412       O  0.73694846  0.85017881  0.80303080    -0.60100
H2413       H  0.78650555  0.94295986  0.85970685     0.16830
O2414       O  0.75585867  0.93239361  0.93043424    -0.60200
H2415       H  0.76926849  0.93138299  0.95166242     0.43830
H2416       H  0.71899131  0.84599162  0.78703414     0.43780
C2417       C  0.76579585  0.90917378  0.66989727    -0.05280
C2418       C  0.74440235  0.91682116  0.66657457    -0.32710
C2419       C  0.72522689  0.90762168  0.63111590     0.36540
C2420       C  0.72722646  0.89038961  0.59775104    -0.05640
C2421       C  0.74949716  0.88374086  0.60034062    -0.32610
C2422       C  0.76880539  0.89315705  0.63591789     0.36450
H2423       H  0.74197078  0.92930931  0.69236832     0.16820
O2424       O  0.70419827  0.91510831  0.63013316    -0.60100
H2425       H  0.75165475  0.87073060  0.57514514     0.16830
O2426       O  0.78917635  0.88487621  0.63859044    -0.60200
H2427       H  0.80595686  0.89915542  0.62077043     0.43830
H2428       H  0.68721302  0.89941884  0.64606978     0.43780
C2429       C  0.60063413  0.90687447  0.82733914    -0.05280
C2430       C  0.62959529  0.91323441  0.83069625    -0.32710
C2431       C  0.63856695  0.90348614  0.86581230     0.36540
C2432       C  0.61840894  0.88704874  0.89890525    -0.05640
C2433       C  0.58937549  0.88086451  0.89561300    -0.32610
C2434       C  0.58048527  0.89078677  0.86028578     0.36450
H2435       H  0.64528198  0.92546869  0.80545817     0.16820
O2436       O  0.66708023  0.90988924  0.86692641    -0.60100
H2437       H  0.57345880  0.86820579  0.92034072     0.16830
O2438       O  0.55168797  0.88325745  0.85699595    -0.60200
H2439       H  0.55019280  0.89775203  0.87535639     0.43830
H2440       H  0.66675109  0.89333102  0.85158488     0.43780
C2441       C  0.60964053  0.88207091  0.59461103    -0.05280
C2442       C  0.61978954  0.91200635  0.60031012    -0.32710
C2443       C  0.61103775  0.92194425  0.63619531     0.36540
C2444       C  0.59215863  0.90192762  0.66727541    -0.05640
C2445       C  0.58111212  0.87205092  0.66085888    -0.32610
C2446       C  0.58957301  0.86200639  0.62508852     0.36450
H2447       H  0.63508071  0.92786897  0.57749364     0.16820
O2448       O  0.62257690  0.95139312  0.64211871    -0.60100
H2449       H  0.56647126  0.85644371  0.68453546     0.16830
O2450       O  0.57841223  0.83249610  0.62092220    -0.60200
H2451       H  0.59162443  0.82867550  0.63850537     0.43830
H2452       H  0.60926013  0.95575421  0.62590099     0.43780
C2453       C  0.61326316  0.57511436  0.74975543    -0.05280
C2454       C  0.59764145  0.57825422  0.71555848    -0.32710
C2455       C  0.56683802  0.56323926  0.71541184     0.36540
C2456       C  0.55107634  0.54557588  0.75067950    -0.05640
C2457       C  0.56653153  0.54257660  0.78496819    -0.32610
C2458       C  0.59711406  0.55635748  0.78419338     0.36450
H2459       H  0.60922059  0.59232117  0.68856651     0.16820
O2460       O  0.55219567  0.56459997  0.67975227    -0.60100
H2461       H  0.55466362  0.52885061  0.81216600     0.16830
O2462       O  0.61074240  0.55044015  0.81668921    -0.60200
H2463       H  0.61233985  0.53386354  0.80558507     0.43830
H2464       H  0.55917947  0.58560451  0.67599569     0.43780
C2465       C  0.74619613  0.63447630  0.59472531    -0.05280
C2466       C  0.72517847  0.64274620  0.59914382    -0.32710
C2467       C  0.70592958  0.63337973  0.63449059     0.36540
C2468       C  0.70773306  0.61576352  0.66636345    -0.05640
C2469       C  0.72774815  0.60646870  0.66111247    -0.32610
C2470       C  0.74683473  0.61557531  0.62586600     0.36450
H2471       H  0.72405810  0.65705973  0.57571264     0.16820
O2472       O  0.68688396  0.64322071  0.63917514    -0.60100
H2473       H  0.72922716  0.59276756  0.68533185     0.16830
O2474       O  0.76642874  0.60628457  0.62292381    -0.60200
H2475       H  0.78370143  0.62054626  0.64050869     0.43830
H2476       H  0.66938123  0.62955439  0.62150668     0.43780
C2477       C  0.71130868  0.62502475  0.82669369    -0.05280
C2478       C  0.73616699  0.65334434  0.82868001    -0.32710
C2479       C  0.75519006  0.66271773  0.86430276     0.36540
C2480       C  0.74948377  0.64371338  0.89935399    -0.05640
C2481       C  0.72433646  0.61543969  0.89766486    -0.32610
C2482       C  0.70518840  0.60611663  0.86183814     0.36450
H2483       H  0.74116233  0.66819562  0.80200446     0.16820
O2484       O  0.77964519  0.69039170  0.86393970    -0.60100
H2485       H  0.71950941  0.60047326  0.92410191     0.16830
O2486       O  0.68151504  0.57798789  0.86039164    -0.60200
H2487       H  0.66645350  0.57818043  0.87906882     0.43830
H2488       H  0.79536366  0.68810937  0.85084850     0.43780
C2489       C  0.92333839  0.88717758  0.75389726    -0.05280
C2490       C  0.92058127  0.90271717  0.78890122    -0.32710
C2491       C  0.93696374  0.93332782  0.79060417     0.36540
C2492       C  0.95515447  0.94918782  0.75573444    -0.05640
C2493       C  0.95782262  0.93388187  0.72066962    -0.32610
C2494       C  0.94309427  0.90334475  0.72026456     0.36450
H2495       H  0.90571800  0.89119985  0.81526741     0.16820
O2496       O  0.93488513  0.94754420  0.82640490    -0.60100
H2497       H  0.97191298  0.94574652  0.69374531     0.16830
O2498       O  0.94898420  0.88974541  0.68735954    -0.60200
H2499       H  0.96499449  0.88728292  0.69861176     0.43830
H2500       H  0.95194596  0.95193591  0.84493213     0.43780
C2501       C  0.88028157  0.79167450  0.83295483    -0.05280
C2502       C  0.88855094  0.77079275  0.83548253    -0.32710
C2503       C  0.88055236  0.75216433  0.87082261     0.36540
C2504       C  0.86407670  0.75429300  0.90508134    -0.05640
C2505       C  0.85649917  0.77583302  0.90307318    -0.32610
C2506       C  0.86462493  0.79454675  0.86748320     0.36450
H2507       H  0.90074270  0.76842525  0.80926419     0.16820
O2508       O  0.88845521  0.73151594  0.87081683    -0.60100
H2509       H  0.84383663  0.77792043  0.92880209     0.16830
O2510       O  0.85557497  0.81427314  0.86548434    -0.60200
H2511       H  0.86979286  0.83113891  0.88374584     0.43830
H2512       H  0.87233916  0.71432010  0.85521331     0.43780
C2513       C  0.85878189  0.75361098  0.59952685    -0.05280
C2514       C  0.84539726  0.76991350  0.60783171    -0.32710
C2515       C  0.85390809  0.78892438  0.64381399     0.36540
C2516       C  0.87540421  0.79106742  0.67264582    -0.05640
C2517       C  0.88907490  0.77514417  0.66388093    -0.32610
C2518       C  0.88100882  0.75664804  0.62758089     0.36450
H2519       H  0.82817691  0.76772895  0.58653903     0.16820
O2520       O  0.83998000  0.80399694  0.65187766    -0.60100
H2521       H  0.90559633  0.77654149  0.68594927     0.16830
O2522       O  0.89381499  0.74037607  0.62117111    -0.60200
H2523       H  0.88040532  0.72144318  0.63530639     0.43830
H2524       H  0.85061279  0.82194905  0.63429412     0.43780
C2525       C  0.92250699  0.57159731  0.74972674    -0.05280
C2526       C  0.94232021  0.57720655  0.78394628    -0.32710
C2527       C  0.95804189  0.56288599  0.78611960     0.36540
C2528       C  0.95495681  0.54324847  0.75290679    -0.05640
C2529       C  0.93547484  0.53775679  0.71850670    -0.32610
C2530       C  0.91880449  0.55110678  0.71719384     0.36450
H2531       H  0.94582348  0.59284021  0.80933169     0.16820
O2532       O  0.47515035  0.56689845  0.82188875    -0.60100
H2533       H  0.93269848  0.52248354  0.69291142     0.16830
O2534       O  0.89772044  0.54259001  0.68550092    -0.60200
H2535       H  0.90858606  0.54910069  0.65777135     0.43830
H2536       H  0.48940587  0.58825395  0.82425709     0.43780
C2537       C  0.86389694  0.64197676  0.59443951    -0.05280
C2538       C  0.84723295  0.61240659  0.60644277    -0.32710
C2539       C  0.85541426  0.60229790  0.64225495     0.36540
C2540       C  0.88031828  0.62185615  0.66693732    -0.05640
C2541       C  0.89781443  0.65090461  0.65397585    -0.32610
C2542       C  0.88996761  0.66108818  0.61786389     0.36450
H2543       H  0.82731506  0.59723829  0.58886213     0.16820
O2544       O  0.83812545  0.57362721  0.65421149    -0.60100
H2545       H  0.91737602  0.66589651  0.67244948     0.16830
O2546       O  0.90829223  0.68945405  0.60491492    -0.60200
H2547       H  0.91166444  0.70199718  0.63080750     0.43830
H2548       H  0.84701363  0.56335908  0.63998523     0.43780
C2549       C  0.85970568  0.63948040  0.90173155    -0.05280
C2550       C  0.88393478  0.65985910  0.87748935    -0.32710
C2551       C  0.89238249  0.65100715  0.84016462     0.36540
C2552       C  0.87716895  0.62130071  0.82752304    -0.05640
C2553       C  0.85383609  0.60070781  0.85282933    -0.32610
C2554       C  0.84490154  0.60963188  0.88953045     0.36450
H2555       H  0.89562059  0.68283612  0.88653962     0.16820
O2556       O  0.91561132  0.67147499  0.81626508    -0.60100
H2557       H  0.84202011  0.57778836  0.84338997     0.16830
O2558       O  0.82151475  0.58904696  0.91305227    -0.60200
H2559       H  0.83033935  0.58359471  0.93664405     0.43830
H2560       H  0.90721578  0.68008387  0.79707356     0.43780
loop_ 
_geom_bond_atom_site_label_1 
_geom_bond_atom_site_label_2 
_geom_bond_distance 
_geom_bond_site_symmetry_2 
_ccdc_geom_bond_type 
C1            C2   1.412       .  A
C1            C6   1.410       .  A
C1          C285   1.495       .  S
C2            C3   1.402       .  A
C2            H7   1.083       .  S
C3            C4   1.398       .  A
C3          C312   1.476       .  S
C4            C5   1.398       .  A
C4            H8   1.084       .  S
C5            C6   1.400       .  A
C5          C300   1.472       .  S
C6            H9   1.081       .  S
C10          C11   1.412       .  A
C10          C15   1.412       .  A
C10         C249   1.496       .  S
C11          C12   1.401       .  A
C11          H16   1.082       .  S
C12          C13   1.397       .  A
C12         C276   1.478       .  S
C13          C14   1.399       .  A
C13          H17   1.085       .  S
C14          C15   1.403       .  A
C14         C261   1.481       .  S
C15          H18   1.082       .  S
O19          C27   1.270       .  A
O19        Cr357   2.025       .  S
O20          C21   1.258       .  A
O20        Cr357   1.965       .  S
C21         C273   1.475       .  S
C21          O22   1.269       .  A
O22        Cr358   2.018       .  S
O23          C24   1.258       .  A
O23        Cr358   1.965       .  S
C24         C297   1.487       .  S
C24          O25   1.269       .  A
O25        Cr359   2.021   1_554  S
O26          C27   1.256       .  A
O26        Cr359   1.958   1_554  S
C27         C225   1.487       .  S
O28          C36   1.256       .  A
O28         Cr37   1.958       .  S
O29          C30   1.268       .  A
O29         Cr37   2.019       .  S
C30         C264   1.486       .  S
C30          O31   1.257       .  A
O31         Cr38   1.962       .  S
O32          C33   1.268       .  A
O32         Cr38   2.018       .  S
C33         C309   1.476       .  S
C33          O34   1.258       .  A
O34         Cr39   1.964       .  S
O35          C36   1.269       .  A
O35         Cr39   2.025       .  S
C36         C240   1.484       .  S
Cr37        O339   2.025       .  S
Cr37        O340   1.965       .  S
Cr37         O40   1.774       .  S
Cr38        O342   2.018       .  S
Cr38        O343   1.965       .  S
Cr38         O40   1.768       .  S
Cr39        O345   2.021       .  S
Cr39        O346   1.958       .  S
Cr39         O40   1.772       .  S
C41          C42   1.411       .  A
C41          C46   1.412       .  A
C41         C213   1.494       .  S
C42          C43   1.402       .  A
C42          H47   1.082       .  S
C43          C44   1.399       .  A
C43         C237   1.483       .  S
C44          C45   1.399       .  A
C44          H48   1.084       .  S
C45          C46   1.402       .  A
C45         C228   1.479       .  S
C46          H49   1.083       .  S
O50          C58   1.270       .  A
O50        Cr388   2.024       .  S
O51          C52   1.258       .  A
O51        Cr388   1.959       .  S
C52         C141   1.487       .  S
C52          O53   1.271       .  A
O53        Cr389   2.029   1_554  S
O54          C55   1.256       .  A
O54        Cr389   1.957   1_554  S
C55         C201   1.488       .  S
C55          O56   1.270       .  A
O56        Cr390   2.026   1_554  S
O57          C58   1.256       .  A
O57        Cr390   1.959   1_554  S
C58         C180   1.486       .  S
O59          C67   1.257       .  A
O59         Cr68   1.958       .  S
O60          C61   1.269       .  A
O60         Cr68   2.022       .  S
C61         C153   1.485       .  S
C61          O62   1.257       .  A
O62         Cr69   1.959       .  S
O63          C64   1.271       .  A
O63         Cr69   2.028       .  S
C64         C192   1.486       .  S
C64          O65   1.256       .  A
O65         Cr70   1.955       .  S
O66          C67   1.270       .  A
O66         Cr70   2.025       .  S
C67         C165   1.484       .  S
Cr68        O370   2.024       .  S
Cr68        O371   1.959       .  S
Cr68         O71   1.765       .  S
Cr69        O373   2.029       .  S
Cr69        O374   1.957       .  S
Cr69         O71   1.766       .  S
Cr70        O376   2.026       .  S
Cr70        O377   1.959       .  S
Cr70         O71   1.766       .  S
C72          C73   1.415       .  A
C72          C77   1.413       .  A
C72         C129   1.500       .  S
C73          C74   1.401       .  A
C73          H78   1.082       .  S
C74          C75   1.397       .  A
C74         C204   1.477       .  S
C75          C76   1.398       .  A
C75          H79   1.085       .  S
C76          C77   1.402       .  A
C76         C189   1.480       .  S
C77          H80   1.081       .  S
C81          C82   1.411       .  A
C81          C86   1.411       .  A
C81         C117   1.493       .  S
C82          C83   1.402       .  A
C82          H87   1.081       .  S
C83          C84   1.399       .  A
C83         C177   1.480       .  S
C84          C85   1.398       .  A
C84          H88   1.084       .  S
C85          C86   1.400       .  A
C85         C168   1.477       .  S
C86          H89   1.083       .  S
C90          C91   1.411       .  A
C90          C95   1.412       .  A
C90         C108   1.494       .  S
C91          C92   1.398       .  A
C91          H96   1.083       .  S
C92          C93   1.396       .  A
C92         C156   1.473       .  S
C93          C94   1.400       .  A
C93          H97   1.084       .  S
C94          C95   1.404       .  A
C94         C144   1.480       .  S
C95          H98   1.082       .  S
C99         C740   1.419   1_545  A
C99        C1384   1.420       .  A
C99         C288   1.494       .  S
C100        C101   1.416       .  A
C100        C739   1.419       .  A
C100        C120   1.491       .  S
C101       C1382   1.416       .  A
C101        C252   1.494       .  S
C102       C1381   1.416   1_455  A
C102        C743   1.418       .  A
C102        C132   1.491       .  S
C103        C104   1.419       .  A
C103        C742   1.418   1_545  A
C103        C216   1.493       .  S
C104       C1379   1.420   1_455  A
C104        C105   1.494       .  S
C105        C106   1.404       .  A
C105        C110   1.406       .  A
C106        C107   1.401       .  A
C106       H1391   1.083   1_455  S
C107        C108   1.414       .  A
C107        O112   1.372       .  S
C108        C109   1.408       .  A
C109        C110   1.399       .  A
C109        H113   1.082       .  S
C110        O114   1.374       .  S
H111       C1386   1.083       .  S
O112       H1396   0.992       .  S
O114        H115   0.992       .  S
H116       O1392   0.992       .  S
C117        C118   1.408       .  A
C117        C122   1.414       .  A
C118        C119   1.400       .  A
C118        H123   1.082       .  S
C119        C120   1.406       .  A
C119        O764   1.374       .  S
C120        C121   1.402       .  A
C121        C122   1.400       .  A
C121        H125   1.084       .  S
C122        O126   1.373       .  S
O124        C759   1.374       .  S
O124        H128   0.991   1_565  S
O126        H127   0.993       .  S
C129        C130   1.410       .  A
C129        C134   1.419       .  A
C130        C131   1.397       .  A
C130        H135   1.082       .  S
C131        C132   1.405       .  A
C131       O1416   1.371       .  S
C132        C133   1.400       .  A
C133        C134   1.399       .  A
C133        H777   1.083       .  S
C134        O138   1.371       .  S
O136       C1411   1.371       .  S
O136        H140   0.992       .  S
H137        C773   1.083       .  S
O138        H779   0.991       .  S
H139        O778   0.991       .  S
C141        C142   1.408       .  A
C141        C146   1.413       .  A
C142        C143   1.397       .  A
C142        H147   1.083       .  S
C143        C144   1.405       .  A
C143        O148   1.373       .  S
C144        C145   1.404       .  A
C145        C146   1.404       .  A
C145        H149   1.084       .  S
C146        O150   1.371       .  S
O148        H152   0.992       .  S
O150        H151   0.992       .  S
C153        C154   1.409       .  A
C153        C158   1.413       .  A
C154        C155   1.397       .  A
C154        H159   1.083       .  S
C155        C156   1.402       .  A
C155        O160   1.372       .  S
C156        C157   1.402       .  A
C157        C158   1.402       .  A
C157        H161   1.084       .  S
C158        O162   1.371       .  S
O160        H164   0.992       .  S
O162        H163   0.992       .  S
C165        C166   1.408       .  A
C165        C170   1.412       .  A
C166        C167   1.396       .  A
C166        H171   1.083       .  S
C167        C168   1.405       .  A
C167        O172   1.373       .  S
C168        C169   1.403       .  A
C169        C170   1.403       .  A
C169        H173   1.084       .  S
C170        O174   1.371       .  S
O172        H176   0.992       .  S
O174        H175   0.992       .  S
C177        C178   1.401       .  A
C177        C182   1.408       .  A
C178        C179   1.396       .  A
C178        H183   1.084       .  S
C179        C180   1.415       .  A
C179        O184   1.372       .  S
C180        C181   1.407       .  A
C181        C182   1.402       .  A
C181        H185   1.083       .  S
C182        O186   1.372       .  S
O184        H188   0.992       .  S
O186        H187   0.992       .  S
C189        C190   1.400       .  A
C189        C194   1.409       .  A
C190        C191   1.396       .  A
C190        H195   1.084       .  S
C191        C192   1.416       .  A
C191        O196   1.372       .  S
C192        C193   1.406       .  A
C193        C194   1.404       .  A
C193        H197   1.083       .  S
C194        O198   1.372       .  S
O196        H200   0.992       .  S
O198        H199   0.992       .  S
C201        C202   1.408       .  A
C201        C206   1.417       .  A
C202        C203   1.404       .  A
C202        H207   1.083       .  S
C203        C204   1.407       .  A
C203        O208   1.371       .  S
C204        C205   1.399       .  A
C205        C206   1.396       .  A
C205        H209   1.084       .  S
C206        O210   1.372       .  S
O208        H212   0.992       .  S
O210        H211   0.992       .  S
C213        C214   1.409       .  A
C213        C218   1.415       .  A
C214        C215   1.402       .  A
C214        H219   1.082       .  S
C215        C216   1.407       .  A
C215        O220   1.374       .  S
C216        C217   1.402       .  A
C217        C218   1.396       .  A
C217        H221   1.083       .  S
C218        O222   1.371       .  S
O220        H224   0.992       .  S
O222        H223   0.992       .  S
C225        C226   1.407       .  A
C225        C230   1.416       .  A
C226        C227   1.403       .  A
C226        H231   1.083       .  S
C227        C228   1.407       .  A
C227        O232   1.371       .  S
C228        C229   1.400       .  A
C229        C230   1.396       .  A
C229        H233   1.084       .  S
C230        O234   1.372       .  S
O232        H236   0.992       .  S
O234        H235   0.992       .  S
C237        C238   1.401       .  A
C237        C242   1.410       .  A
C238        C239   1.395       .  A
C238        H243   1.084       .  S
C239        C240   1.414       .  A
C239        O244   1.372       .  S
C240        C241   1.406       .  A
C241        C242   1.404       .  A
C241        H245   1.083       .  S
C242        O246   1.372       .  S
O244        H248   0.992       .  S
O246        H247   0.992       .  S
C249        C250   1.409       .  A
C249        C254   1.416       .  A
C250        C251   1.399       .  A
C250        H255   1.082       .  S
C251        C252   1.408       .  A
C251        O256   1.371       .  S
C252        C253   1.401       .  A
C253        C254   1.397       .  A
C253        H257   1.083       .  S
C254        O258   1.371       .  S
O256        H260   0.992       .  S
O258        H259   0.992       .  S
C261        C262   1.401       .  A
C261        C266   1.408       .  A
C262        C263   1.395       .  A
C262        H267   1.084       .  S
C263        C264   1.415       .  A
C263        O268   1.372       .  S
C264        C265   1.407       .  A
C265        C266   1.404       .  A
C265        H269   1.083       .  S
C266        O270   1.372       .  S
O268        H272   0.992       .  S
O270        H271   0.992       .  S
C273        C274   1.406       .  A
C273        C278   1.405       .  A
C274        C275   1.403       .  A
C274        H279   1.084       .  S
C275        C276   1.406       .  A
C275        O280   1.371       .  S
C276        C277   1.403       .  A
C277        C278   1.397       .  A
C277        H281   1.084       .  S
C278        O282   1.370       .  S
O280        H284   0.992       .  S
O282        H283   0.992       .  S
C285        C286   1.408       .  A
C285        C290   1.414       .  A
C286        C287   1.401       .  A
C286        H291   1.082       .  S
C287        C288   1.407       .  A
C287       O1572   1.374       .  S
C288        C289   1.403       .  A
C289        C290   1.400       .  A
C289        H293   1.083       .  S
C290        O294   1.373       .  S
O292       C1567   1.374       .  S
O292        H296   0.992       .  S
O294        H295   0.993       .  S
C297        C298   1.407       .  A
C297        C302   1.416       .  A
C298        C299   1.401       .  A
C298        H303   1.083       .  S
C299        C300   1.405       .  A
C299        O304   1.371       .  S
C300        C301   1.397       .  A
C301        C302   1.402       .  A
C301        H305   1.084       .  S
C302        O306   1.374       .  S
O304        H308   0.992       .  S
O306        H307   0.992       .  S
C309        C310   1.403       .  A
C309        C314   1.411       .  A
C310        C311   1.401       .  A
C310        H315   1.083       .  S
C311        C312   1.408       .  A
C311        O316   1.372       .  S
C312        C313   1.401       .  A
C313        C314   1.400       .  A
C313        H317   1.084       .  S
C314        O318   1.372       .  S
O316        H320   0.992       .  S
O318        H319   0.992       .  S
C321        C322   1.412       .  A
C321        C326   1.410       .  A
C321        C605   1.495       .  S
C322        C323   1.402       .  A
C322        H327   1.083       .  S
C323        C324   1.398       .  A
C323        C632   1.476       .  S
C324        C325   1.398       .  A
C324        H328   1.084       .  S
C325        C326   1.400       .  A
C325        C620   1.472       .  S
C326        H329   1.081       .  S
C330        C331   1.412       .  A
C330        C335   1.412       .  A
C330        C569   1.496       .  S
C331        C332   1.401       .  A
C331        H336   1.082       .  S
C332        C333   1.397       .  A
C332        C596   1.478       .  S
C333        C334   1.399       .  A
C333        H337   1.085       .  S
C334        C335   1.403       .  A
C334        C581   1.481       .  S
C335        H338   1.082       .  S
O339        C347   1.270       .  A
O340        C341   1.258       .  A
C341        C593   1.475       .  S
C341        O342   1.269       .  A
O343        C344   1.258       .  A
C344        C617   1.487       .  S
C344        O345   1.269       .  A
O346        C347   1.256       .  A
C347        C545   1.487       .  S
O348        C356   1.256       .  A
O348       Cr357   1.958   1_556  S
O349        C350   1.268       .  A
O349       Cr357   2.019   1_556  S
C350        C584   1.486       .  S
C350        O351   1.257       .  A
O351       Cr358   1.962   1_556  S
O352        C353   1.268       .  A
O352       Cr358   2.018   1_556  S
C353        C629   1.476       .  S
C353        O354   1.258       .  A
O354       Cr359   1.964       .  S
O355        C356   1.269       .  A
O355       Cr359   2.025       .  S
C356        C560   1.484       .  S
Cr357       O360   1.774       .  S
Cr358       O360   1.768       .  S
Cr359       O360   1.772   1_556  S
C361        C362   1.411       .  A
C361        C366   1.412       .  A
C361        C533   1.494       .  S
C362        C363   1.402       .  A
C362        H367   1.082       .  S
C363        C364   1.399       .  A
C363        C557   1.483       .  S
C364        C365   1.399       .  A
C364        H368   1.084       .  S
C365        C366   1.402       .  A
C365        C548   1.479       .  S
C366        H369   1.083       .  S
O370        C378   1.270       .  A
O371        C372   1.258       .  A
C372        C461   1.487       .  S
C372        O373   1.271       .  A
O374        C375   1.256       .  A
C375        C521   1.488       .  S
C375        O376   1.270       .  A
O377        C378   1.256       .  A
C378        C500   1.486       .  S
O379        C387   1.257       .  A
O379       Cr388   1.958   1_556  S
O380        C381   1.269       .  A
O380       Cr388   2.022   1_556  S
C381        C473   1.485       .  S
C381        O382   1.257       .  A
O382       Cr389   1.959       .  S
O383        C384   1.271       .  A
O383       Cr389   2.028       .  S
C384        C512   1.486       .  S
C384        O385   1.256       .  A
O385       Cr390   1.955       .  S
O386        C387   1.270       .  A
O386       Cr390   2.025       .  S
C387        C485   1.484       .  S
Cr388       O391   1.765   1_554  S
Cr389       O391   1.766       .  S
Cr390       O391   1.766       .  S
C392        C393   1.415       .  A
C392        C397   1.413       .  A
C392        C449   1.500       .  S
C393        C394   1.401       .  A
C393        H398   1.082       .  S
C394        C395   1.397       .  A
C394        C524   1.477       .  S
C395        C396   1.398       .  A
C395        H399   1.085       .  S
C396        C397   1.402       .  A
C396        C509   1.480       .  S
C397        H400   1.081       .  S
C401        C402   1.411       .  A
C401        C406   1.411       .  A
C401        C437   1.493       .  S
C402        C403   1.402       .  A
C402        H407   1.081       .  S
C403        C404   1.399       .  A
C403        C497   1.480       .  S
C404        C405   1.398       .  A
C404        H408   1.084       .  S
C405        C406   1.400       .  A
C405        C488   1.477       .  S
C406        H409   1.083       .  S
C410        C411   1.411       .  A
C410        C415   1.412       .  A
C410        C428   1.494       .  S
C411        C412   1.398       .  A
C411        H416   1.083       .  S
C412        C413   1.396       .  A
C412        C476   1.473       .  S
C413        C414   1.400       .  A
C413        H417   1.084       .  S
C414        C415   1.404       .  A
C414        C464   1.480       .  S
C415        H418   1.082       .  S
C419       C1060   1.419   1_545  A
C419       C1704   1.420       .  A
C419        C608   1.494       .  S
C420       C1059   1.419       .  A
C420        C421   1.416       .  A
C420        C440   1.491       .  S
C421       C1702   1.416       .  A
C421        C572   1.494       .  S
C422       C1701   1.416   1_455  A
C422       C1063   1.418       .  A
C422        C452   1.491       .  S
C423       C1062   1.418   1_545  A
C423        C424   1.419       .  A
C423        C536   1.493       .  S
C424       C1699   1.420   1_455  A
C424        C425   1.494       .  S
C425        C426   1.404       .  A
C425        C430   1.406       .  A
C426        C427   1.401       .  A
C426       H1711   1.083   1_455  S
C427        C428   1.414       .  A
C427        O432   1.372       .  S
C428        C429   1.408       .  A
C429        C430   1.399       .  A
C429        H433   1.082       .  S
C430        O434   1.374       .  S
H431       C1706   1.083       .  S
O432       H1716   0.992       .  S
O434        H435   0.992       .  S
H436       O1712   0.992       .  S
C437        C438   1.408       .  A
C437        C442   1.414       .  A
C438        C439   1.400       .  A
C438        H443   1.082       .  S
C439        C440   1.406       .  A
C439       O1084   1.374       .  S
C440        C441   1.402       .  A
C441        C442   1.400       .  A
C441        H445   1.084       .  S
C442        O446   1.373       .  S
O444       C1079   1.374       .  S
O444        H448   0.991   1_565  S
O446        H447   0.993       .  S
C449        C450   1.410       .  A
C449        C454   1.419       .  A
C450        C451   1.397       .  A
C450        H455   1.082       .  S
C451        C452   1.405       .  A
C451       O1736   1.371       .  S
C452        C453   1.400       .  A
C453        C454   1.399       .  A
C453       H1097   1.083       .  S
C454        O458   1.371       .  S
O456       C1731   1.371       .  S
O456        H460   0.992       .  S
H457       C1093   1.083       .  S
O458       H1099   0.991       .  S
H459       O1098   0.991       .  S
C461        C462   1.408       .  A
C461        C466   1.413       .  A
C462        C463   1.397       .  A
C462        H467   1.083       .  S
C463        C464   1.405       .  A
C463        O468   1.373       .  S
C464        C465   1.404       .  A
C465        C466   1.404       .  A
C465        H469   1.084       .  S
C466        O470   1.371       .  S
O468        H472   0.992       .  S
O470        H471   0.992       .  S
C473        C474   1.409       .  A
C473        C478   1.413       .  A
C474        C475   1.397       .  A
C474        H479   1.083       .  S
C475        C476   1.402       .  A
C475        O480   1.372       .  S
C476        C477   1.402       .  A
C477        C478   1.402       .  A
C477        H481   1.084       .  S
C478        O482   1.371       .  S
O480        H484   0.992       .  S
O482        H483   0.992       .  S
C485        C486   1.408       .  A
C485        C490   1.412       .  A
C486        C487   1.396       .  A
C486        H491   1.083       .  S
C487        C488   1.405       .  A
C487        O492   1.373       .  S
C488        C489   1.403       .  A
C489        C490   1.403       .  A
C489        H493   1.084       .  S
C490        O494   1.371       .  S
O492        H496   0.992       .  S
O494        H495   0.992       .  S
C497        C498   1.401       .  A
C497        C502   1.408       .  A
C498        C499   1.396       .  A
C498        H503   1.084       .  S
C499        C500   1.415       .  A
C499        O504   1.372       .  S
C500        C501   1.407       .  A
C501        C502   1.402       .  A
C501        H505   1.083       .  S
C502        O506   1.372       .  S
O504        H508   0.992       .  S
O506        H507   0.992       .  S
C509        C510   1.400       .  A
C509        C514   1.409       .  A
C510        C511   1.396       .  A
C510        H515   1.084       .  S
C511        C512   1.416       .  A
C511        O516   1.372       .  S
C512        C513   1.406       .  A
C513        C514   1.404       .  A
C513        H517   1.083       .  S
C514        O518   1.372       .  S
O516        H520   0.992       .  S
O518        H519   0.992       .  S
C521        C522   1.408       .  A
C521        C526   1.417       .  A
C522        C523   1.404       .  A
C522        H527   1.083       .  S
C523        C524   1.407       .  A
C523        O528   1.371       .  S
C524        C525   1.399       .  A
C525        C526   1.396       .  A
C525        H529   1.084       .  S
C526        O530   1.372       .  S
O528        H532   0.992       .  S
O530        H531   0.992       .  S
C533        C534   1.409       .  A
C533        C538   1.415       .  A
C534        C535   1.402       .  A
C534        H539   1.082       .  S
C535        C536   1.407       .  A
C535        O540   1.374       .  S
C536        C537   1.402       .  A
C537        C538   1.396       .  A
C537        H541   1.083       .  S
C538        O542   1.371       .  S
O540        H544   0.992       .  S
O542        H543   0.992       .  S
C545        C546   1.407       .  A
C545        C550   1.416       .  A
C546        C547   1.403       .  A
C546        H551   1.083       .  S
C547        C548   1.407       .  A
C547        O552   1.371       .  S
C548        C549   1.400       .  A
C549        C550   1.396       .  A
C549        H553   1.084       .  S
C550        O554   1.372       .  S
O552        H556   0.992       .  S
O554        H555   0.992       .  S
C557        C558   1.401       .  A
C557        C562   1.410       .  A
C558        C559   1.395       .  A
C558        H563   1.084       .  S
C559        C560   1.414       .  A
C559        O564   1.372       .  S
C560        C561   1.406       .  A
C561        C562   1.404       .  A
C561        H565   1.083       .  S
C562        O566   1.372       .  S
O564        H568   0.992       .  S
O566        H567   0.992       .  S
C569        C570   1.409       .  A
C569        C574   1.416       .  A
C570        C571   1.399       .  A
C570        H575   1.082       .  S
C571        C572   1.408       .  A
C571        O576   1.371       .  S
C572        C573   1.401       .  A
C573        C574   1.397       .  A
C573        H577   1.083       .  S
C574        O578   1.371       .  S
O576        H580   0.992       .  S
O578        H579   0.992       .  S
C581        C582   1.401       .  A
C581        C586   1.408       .  A
C582        C583   1.395       .  A
C582        H587   1.084       .  S
C583        C584   1.415       .  A
C583        O588   1.372       .  S
C584        C585   1.407       .  A
C585        C586   1.404       .  A
C585        H589   1.083       .  S
C586        O590   1.372       .  S
O588        H592   0.992       .  S
O590        H591   0.992       .  S
C593        C594   1.406       .  A
C593        C598   1.405       .  A
C594        C595   1.403       .  A
C594        H599   1.084       .  S
C595        C596   1.406       .  A
C595        O600   1.371       .  S
C596        C597   1.403       .  A
C597        C598   1.397       .  A
C597        H601   1.084       .  S
C598        O602   1.370       .  S
O600        H604   0.992       .  S
O602        H603   0.992       .  S
C605        C606   1.408       .  A
C605        C610   1.414       .  A
C606        C607   1.401       .  A
C606        H611   1.082       .  S
C607        C608   1.407       .  A
C607       O1892   1.374       .  S
C608        C609   1.403       .  A
C609        C610   1.400       .  A
C609        H613   1.083       .  S
C610        O614   1.373       .  S
O612       C1887   1.374       .  S
O612        H616   0.992       .  S
O614        H615   0.993       .  S
C617        C618   1.407       .  A
C617        C622   1.416       .  A
C618        C619   1.401       .  A
C618        H623   1.083       .  S
C619        C620   1.405       .  A
C619        O624   1.371       .  S
C620        C621   1.397       .  A
C621        C622   1.402       .  A
C621        H625   1.084       .  S
C622        O626   1.374       .  S
O624        H628   0.992       .  S
O626        H627   0.992       .  S
C629        C630   1.403       .  A
C629        C634   1.411       .  A
C630        C631   1.401       .  A
C630        H635   1.083       .  S
C631        C632   1.408       .  A
C631        O636   1.372       .  S
C632        C633   1.401       .  A
C633        C634   1.400       .  A
C633        H637   1.084       .  S
C634        O638   1.372       .  S
O636        H640   0.992       .  S
O638        H639   0.992       .  S
C641        C642   1.412       .  A
C641        C646   1.410       .  A
C641        C925   1.495       .  S
C642        C643   1.402       .  A
C642        H647   1.083       .  S
C643        C644   1.398       .  A
C643        C952   1.476       .  S
C644        C645   1.398       .  A
C644        H648   1.084       .  S
C645        C646   1.400       .  A
C645        C940   1.472       .  S
C646        H649   1.081       .  S
C650        C651   1.412       .  A
C650        C655   1.412       .  A
C650        C889   1.496       .  S
C651        C652   1.401       .  A
C651        H656   1.082       .  S
C652        C653   1.397       .  A
C652        C916   1.478       .  S
C653        C654   1.399       .  A
C653        H657   1.085       .  S
C654        C655   1.403       .  A
C654        C901   1.481       .  S
C655        H658   1.082       .  S
O659        C667   1.270       .  A
O659       Cr997   2.025       .  S
O660        C661   1.258       .  A
O660       Cr997   1.965       .  S
C661        C913   1.475       .  S
C661        O662   1.269       .  A
O662       Cr998   2.018       .  S
O663        C664   1.258       .  A
O663       Cr998   1.965       .  S
C664        C937   1.487       .  S
C664        O665   1.269       .  A
O665       Cr999   2.021   1_554  S
O666        C667   1.256       .  A
O666       Cr999   1.958   1_554  S
C667        C865   1.487       .  S
O668        C676   1.256       .  A
O668       Cr677   1.958       .  S
O669        C670   1.268       .  A
O669       Cr677   2.019       .  S
C670        C904   1.486       .  S
C670        O671   1.257       .  A
O671       Cr678   1.962       .  S
O672        C673   1.268       .  A
O672       Cr678   2.018       .  S
C673        C949   1.476       .  S
C673        O674   1.258       .  A
O674       Cr679   1.964       .  S
O675        C676   1.269       .  A
O675       Cr679   2.025       .  S
C676        C880   1.484       .  S
Cr677       O979   2.025       .  S
Cr677       O980   1.965       .  S
Cr677       O680   1.774       .  S
Cr678       O982   2.018       .  S
Cr678       O983   1.965       .  S
Cr678       O680   1.768       .  S
Cr679       O985   2.021       .  S
Cr679       O986   1.958       .  S
Cr679       O680   1.772       .  S
C681        C682   1.411       .  A
C681        C686   1.412       .  A
C681        C853   1.494       .  S
C682        C683   1.402       .  A
C682        H687   1.082       .  S
C683        C684   1.399       .  A
C683        C877   1.483       .  S
C684        C685   1.399       .  A
C684        H688   1.084       .  S
C685        C686   1.402       .  A
C685        C868   1.479       .  S
C686        H689   1.083       .  S
O690        C698   1.270       .  A
O690      Cr1028   2.024       .  S
O691        C692   1.258       .  A
O691      Cr1028   1.959       .  S
C692        C781   1.487       .  S
C692        O693   1.271       .  A
O693      Cr1029   2.029   1_554  S
O694        C695   1.256       .  A
O694      Cr1029   1.957   1_554  S
C695        C841   1.488       .  S
C695        O696   1.270       .  A
O696      Cr1030   2.026   1_554  S
O697        C698   1.256       .  A
O697      Cr1030   1.959   1_554  S
C698        C820   1.486       .  S
O699        C707   1.257       .  A
O699       Cr708   1.958       .  S
O700        C701   1.269       .  A
O700       Cr708   2.022       .  S
C701        C793   1.485       .  S
C701        O702   1.257       .  A
O702       Cr709   1.959       .  S
O703        C704   1.271       .  A
O703       Cr709   2.028       .  S
C704        C832   1.486       .  S
C704        O705   1.256       .  A
O705       Cr710   1.955       .  S
O706        C707   1.270       .  A
O706       Cr710   2.025       .  S
C707        C805   1.484       .  S
Cr708      O1010   2.024       .  S
Cr708      O1011   1.959       .  S
Cr708       O711   1.765       .  S
Cr709      O1013   2.029       .  S
Cr709      O1014   1.957       .  S
Cr709       O711   1.766       .  S
Cr710      O1016   2.026       .  S
Cr710      O1017   1.959       .  S
Cr710       O711   1.766       .  S
C712        C713   1.415       .  A
C712        C717   1.413       .  A
C712        C769   1.500       .  S
C713        C714   1.401       .  A
C713        H718   1.082       .  S
C714        C715   1.397       .  A
C714        C844   1.477       .  S
C715        C716   1.398       .  A
C715        H719   1.085       .  S
C716        C717   1.402       .  A
C716        C829   1.480       .  S
C717        H720   1.081       .  S
C721        C722   1.411       .  A
C721        C726   1.411       .  A
C721        C757   1.493       .  S
C722        C723   1.402       .  A
C722        H727   1.081       .  S
C723        C724   1.399       .  A
C723        C817   1.480       .  S
C724        C725   1.398       .  A
C724        H728   1.084       .  S
C725        C726   1.400       .  A
C725        C808   1.477       .  S
C726        H729   1.083       .  S
C730        C731   1.411       .  A
C730        C735   1.412       .  A
C730        C748   1.494       .  S
C731        C732   1.398       .  A
C731        H736   1.083       .  S
C732        C733   1.396       .  A
C732        C796   1.473       .  S
C733        C734   1.400       .  A
C733        H737   1.084       .  S
C734        C735   1.404       .  A
C734        C784   1.480       .  S
C735        H738   1.082       .  S
C739       C2024   1.420       .  A
C739        C928   1.494       .  S
C740        C741   1.416       .  A
C740        C760   1.491       .  S
C741       C2022   1.416       .  A
C741        C892   1.494       .  S
C742       C2021   1.416   1_455  A
C742        C772   1.491       .  S
C743        C744   1.419       .  A
C743        C856   1.493       .  S
C744       C2019   1.420   1_455  A
C744        C745   1.494       .  S
C745        C746   1.404       .  A
C745        C750   1.406       .  A
C746        C747   1.401       .  A
C746       H2031   1.083   1_455  S
C747        C748   1.414       .  A
C747        O752   1.372       .  S
C748        C749   1.408       .  A
C749        C750   1.399       .  A
C749        H753   1.082       .  S
C750        O754   1.374       .  S
H751       C2026   1.083       .  S
O752       H2036   0.992       .  S
O754        H755   0.992       .  S
H756       O2032   0.992       .  S
C757        C758   1.408       .  A
C757        C762   1.414       .  A
C758        C759   1.400       .  A
C758        H763   1.082       .  S
C759        C760   1.406       .  A
C760        C761   1.402       .  A
C761        C762   1.400       .  A
C761        H765   1.084       .  S
C762        O766   1.373       .  S
O764        H768   0.991       .  S
O766        H767   0.993       .  S
C769        C770   1.410       .  A
C769        C774   1.419       .  A
C770        C771   1.397       .  A
C770        H775   1.082       .  S
C771        C772   1.405       .  A
C771       O2056   1.371       .  S
C772        C773   1.400       .  A
C773        C774   1.399       .  A
C774        O778   1.371       .  S
O776       C2051   1.371       .  S
O776        H780   0.992       .  S
C781        C782   1.408       .  A
C781        C786   1.413       .  A
C782        C783   1.397       .  A
C782        H787   1.083       .  S
C783        C784   1.405       .  A
C783        O788   1.373       .  S
C784        C785   1.404       .  A
C785        C786   1.404       .  A
C785        H789   1.084       .  S
C786        O790   1.371       .  S
O788        H792   0.992       .  S
O790        H791   0.992       .  S
C793        C794   1.409       .  A
C793        C798   1.413       .  A
C794        C795   1.397       .  A
C794        H799   1.083       .  S
C795        C796   1.402       .  A
C795        O800   1.372       .  S
C796        C797   1.402       .  A
C797        C798   1.402       .  A
C797        H801   1.084       .  S
C798        O802   1.371       .  S
O800        H804   0.992       .  S
O802        H803   0.992       .  S
C805        C806   1.408       .  A
C805        C810   1.412       .  A
C806        C807   1.396       .  A
C806        H811   1.083       .  S
C807        C808   1.405       .  A
C807        O812   1.373       .  S
C808        C809   1.403       .  A
C809        C810   1.403       .  A
C809        H813   1.084       .  S
C810        O814   1.371       .  S
O812        H816   0.992       .  S
O814        H815   0.992       .  S
C817        C818   1.401       .  A
C817        C822   1.408       .  A
C818        C819   1.396       .  A
C818        H823   1.084       .  S
C819        C820   1.415       .  A
C819        O824   1.372       .  S
C820        C821   1.407       .  A
C821        C822   1.402       .  A
C821        H825   1.083       .  S
C822        O826   1.372       .  S
O824        H828   0.992       .  S
O826        H827   0.992       .  S
C829        C830   1.400       .  A
C829        C834   1.409       .  A
C830        C831   1.396       .  A
C830        H835   1.084       .  S
C831        C832   1.416       .  A
C831        O836   1.372       .  S
C832        C833   1.406       .  A
C833        C834   1.404       .  A
C833        H837   1.083       .  S
C834        O838   1.372       .  S
O836        H840   0.992       .  S
O838        H839   0.992       .  S
C841        C842   1.408       .  A
C841        C846   1.417       .  A
C842        C843   1.404       .  A
C842        H847   1.083       .  S
C843        C844   1.407       .  A
C843        O848   1.371       .  S
C844        C845   1.399       .  A
C845        C846   1.396       .  A
C845        H849   1.084       .  S
C846        O850   1.372       .  S
O848        H852   0.992       .  S
O850        H851   0.992       .  S
C853        C854   1.409       .  A
C853        C858   1.415       .  A
C854        C855   1.402       .  A
C854        H859   1.082       .  S
C855        C856   1.407       .  A
C855        O860   1.374       .  S
C856        C857   1.402       .  A
C857        C858   1.396       .  A
C857        H861   1.083       .  S
C858        O862   1.371       .  S
O860        H864   0.992       .  S
O862        H863   0.992       .  S
C865        C866   1.407       .  A
C865        C870   1.416       .  A
C866        C867   1.403       .  A
C866        H871   1.083       .  S
C867        C868   1.407       .  A
C867        O872   1.371       .  S
C868        C869   1.400       .  A
C869        C870   1.396       .  A
C869        H873   1.084       .  S
C870        O874   1.372       .  S
O872        H876   0.992       .  S
O874        H875   0.992       .  S
C877        C878   1.401       .  A
C877        C882   1.410       .  A
C878        C879   1.395       .  A
C878        H883   1.084       .  S
C879        C880   1.414       .  A
C879        O884   1.372       .  S
C880        C881   1.406       .  A
C881        C882   1.404       .  A
C881        H885   1.083       .  S
C882        O886   1.372       .  S
O884        H888   0.992       .  S
O886        H887   0.992       .  S
C889        C890   1.409       .  A
C889        C894   1.416       .  A
C890        C891   1.399       .  A
C890        H895   1.082       .  S
C891        C892   1.408       .  A
C891        O896   1.371       .  S
C892        C893   1.401       .  A
C893        C894   1.397       .  A
C893        H897   1.083       .  S
C894        O898   1.371       .  S
O896        H900   0.992       .  S
O898        H899   0.992       .  S
C901        C902   1.401       .  A
C901        C906   1.408       .  A
C902        C903   1.395       .  A
C902        H907   1.084       .  S
C903        C904   1.415       .  A
C903        O908   1.372       .  S
C904        C905   1.407       .  A
C905        C906   1.404       .  A
C905        H909   1.083       .  S
C906        O910   1.372       .  S
O908        H912   0.992       .  S
O910        H911   0.992       .  S
C913        C914   1.406       .  A
C913        C918   1.405       .  A
C914        C915   1.403       .  A
C914        H919   1.084       .  S
C915        C916   1.406       .  A
C915        O920   1.371       .  S
C916        C917   1.403       .  A
C917        C918   1.397       .  A
C917        H921   1.084       .  S
C918        O922   1.370       .  S
O920        H924   0.992       .  S
O922        H923   0.992       .  S
C925        C926   1.408       .  A
C925        C930   1.414       .  A
C926        C927   1.401       .  A
C926        H931   1.082       .  S
C927        C928   1.407       .  A
C927       O2212   1.374       .  S
C928        C929   1.403       .  A
C929        C930   1.400       .  A
C929        H933   1.083       .  S
C930        O934   1.373       .  S
O932       C2207   1.374       .  S
O932        H936   0.992       .  S
O934        H935   0.993       .  S
C937        C938   1.407       .  A
C937        C942   1.416       .  A
C938        C939   1.401       .  A
C938        H943   1.083       .  S
C939        C940   1.405       .  A
C939        O944   1.371       .  S
C940        C941   1.397       .  A
C941        C942   1.402       .  A
C941        H945   1.084       .  S
C942        O946   1.374       .  S
O944        H948   0.992       .  S
O946        H947   0.992       .  S
C949        C950   1.403       .  A
C949        C954   1.411       .  A
C950        C951   1.401       .  A
C950        H955   1.083       .  S
C951        C952   1.408       .  A
C951        O956   1.372       .  S
C952        C953   1.401       .  A
C953        C954   1.400       .  A
C953        H957   1.084       .  S
C954        O958   1.372       .  S
O956        H960   0.992       .  S
O958        H959   0.992       .  S
C961        C962   1.412       .  A
C961        C966   1.410       .  A
C961       C1245   1.495       .  S
C962        C963   1.402       .  A
C962        H967   1.083       .  S
C963        C964   1.398       .  A
C963       C1272   1.476       .  S
C964        C965   1.398       .  A
C964        H968   1.084       .  S
C965        C966   1.400       .  A
C965       C1260   1.472       .  S
C966        H969   1.081       .  S
C970        C971   1.412       .  A
C970        C975   1.412       .  A
C970       C1209   1.496       .  S
C971        C972   1.401       .  A
C971        H976   1.082       .  S
C972        C973   1.397       .  A
C972       C1236   1.478       .  S
C973        C974   1.399       .  A
C973        H977   1.085       .  S
C974        C975   1.403       .  A
C974       C1221   1.481       .  S
C975        H978   1.082       .  S
O979        C987   1.270       .  A
O980        C981   1.258       .  A
C981       C1233   1.475       .  S
C981        O982   1.269       .  A
O983        C984   1.258       .  A
C984       C1257   1.487       .  S
C984        O985   1.269       .  A
O986        C987   1.256       .  A
C987       C1185   1.487       .  S
O988        C996   1.256       .  A
O988       Cr997   1.958   1_556  S
O989        C990   1.268       .  A
O989       Cr997   2.019   1_556  S
C990       C1224   1.486       .  S
C990        O991   1.257       .  A
O991       Cr998   1.962   1_556  S
O992        C993   1.268       .  A
O992       Cr998   2.018   1_556  S
C993       C1269   1.476       .  S
C993        O994   1.258       .  A
O994       Cr999   1.964       .  S
O995        C996   1.269       .  A
O995       Cr999   2.025       .  S
C996       C1200   1.484       .  S
Cr997      O1000   1.774       .  S
Cr998      O1000   1.768       .  S
Cr999      O1000   1.772   1_556  S
C1001      C1002   1.411       .  A
C1001      C1006   1.412       .  A
C1001      C1173   1.494       .  S
C1002      C1003   1.402       .  A
C1002      H1007   1.082       .  S
C1003      C1004   1.399       .  A
C1003      C1197   1.483       .  S
C1004      C1005   1.399       .  A
C1004      H1008   1.084       .  S
C1005      C1006   1.402       .  A
C1005      C1188   1.479       .  S
C1006      H1009   1.083       .  S
O1010      C1018   1.270       .  A
O1011      C1012   1.258       .  A
C1012      C1101   1.487       .  S
C1012      O1013   1.271       .  A
O1014      C1015   1.256       .  A
C1015      C1161   1.488       .  S
C1015      O1016   1.270       .  A
O1017      C1018   1.256       .  A
C1018      C1140   1.486       .  S
O1019      C1027   1.257       .  A
O1019     Cr1028   1.958   1_556  S
O1020      C1021   1.269       .  A
O1020     Cr1028   2.022   1_556  S
C1021      C1113   1.485       .  S
C1021      O1022   1.257       .  A
O1022     Cr1029   1.959       .  S
O1023      C1024   1.271       .  A
O1023     Cr1029   2.028       .  S
C1024      C1152   1.486       .  S
C1024      O1025   1.256       .  A
O1025     Cr1030   1.955       .  S
O1026      C1027   1.270       .  A
O1026     Cr1030   2.025       .  S
C1027      C1125   1.484       .  S
Cr1028     O1031   1.765   1_554  S
Cr1029     O1031   1.766       .  S
Cr1030     O1031   1.766       .  S
C1032      C1033   1.415       .  A
C1032      C1037   1.413       .  A
C1032      C1089   1.500       .  S
C1033      C1034   1.401       .  A
C1033      H1038   1.082       .  S
C1034      C1035   1.397       .  A
C1034      C1164   1.477       .  S
C1035      C1036   1.398       .  A
C1035      H1039   1.085       .  S
C1036      C1037   1.402       .  A
C1036      C1149   1.480       .  S
C1037      H1040   1.081       .  S
C1041      C1042   1.411       .  A
C1041      C1046   1.411       .  A
C1041      C1077   1.493       .  S
C1042      C1043   1.402       .  A
C1042      H1047   1.081       .  S
C1043      C1044   1.399       .  A
C1043      C1137   1.480       .  S
C1044      C1045   1.398       .  A
C1044      H1048   1.084       .  S
C1045      C1046   1.400       .  A
C1045      C1128   1.477       .  S
C1046      H1049   1.083       .  S
C1050      C1051   1.411       .  A
C1050      C1055   1.412       .  A
C1050      C1068   1.494       .  S
C1051      C1052   1.398       .  A
C1051      H1056   1.083       .  S
C1052      C1053   1.396       .  A
C1052      C1116   1.473       .  S
C1053      C1054   1.400       .  A
C1053      H1057   1.084       .  S
C1054      C1055   1.404       .  A
C1054      C1104   1.480       .  S
C1055      H1058   1.082       .  S
C1059      C2344   1.420       .  A
C1059      C1248   1.494       .  S
C1060      C1061   1.416       .  A
C1060      C1080   1.491       .  S
C1061      C2342   1.416       .  A
C1061      C1212   1.494       .  S
C1062      C2341   1.416   1_455  A
C1062      C1092   1.491       .  S
C1063      C1064   1.419       .  A
C1063      C1176   1.493       .  S
C1064      C2339   1.420   1_455  A
C1064      C1065   1.494       .  S
C1065      C1066   1.404       .  A
C1065      C1070   1.406       .  A
C1066      C1067   1.401       .  A
C1066      H2351   1.083   1_455  S
C1067      C1068   1.414       .  A
C1067      O1072   1.372       .  S
C1068      C1069   1.408       .  A
C1069      C1070   1.399       .  A
C1069      H1073   1.082       .  S
C1070      O1074   1.374       .  S
H1071      C2346   1.083       .  S
O1072      H2356   0.992       .  S
O1074      H1075   0.992       .  S
H1076      O2352   0.992       .  S
C1077      C1078   1.408       .  A
C1077      C1082   1.414       .  A
C1078      C1079   1.400       .  A
C1078      H1083   1.082       .  S
C1079      C1080   1.406       .  A
C1080      C1081   1.402       .  A
C1081      C1082   1.400       .  A
C1081      H1085   1.084       .  S
C1082      O1086   1.373       .  S
O1084      H1088   0.991       .  S
O1086      H1087   0.993       .  S
C1089      C1090   1.410       .  A
C1089      C1094   1.419       .  A
C1090      C1091   1.397       .  A
C1090      H1095   1.082       .  S
C1091      C1092   1.405       .  A
C1091      O2376   1.371       .  S
C1092      C1093   1.400       .  A
C1093      C1094   1.399       .  A
C1094      O1098   1.371       .  S
O1096      C2371   1.371       .  S
O1096      H1100   0.992       .  S
C1101      C1102   1.408       .  A
C1101      C1106   1.413       .  A
C1102      C1103   1.397       .  A
C1102      H1107   1.083       .  S
C1103      C1104   1.405       .  A
C1103      O1108   1.373       .  S
C1104      C1105   1.404       .  A
C1105      C1106   1.404       .  A
C1105      H1109   1.084       .  S
C1106      O1110   1.371       .  S
O1108      H1112   0.992       .  S
O1110      H1111   0.992       .  S
C1113      C1114   1.409       .  A
C1113      C1118   1.413       .  A
C1114      C1115   1.397       .  A
C1114      H1119   1.083       .  S
C1115      C1116   1.402       .  A
C1115      O1120   1.372       .  S
C1116      C1117   1.402       .  A
C1117      C1118   1.402       .  A
C1117      H1121   1.084       .  S
C1118      O1122   1.371       .  S
O1120      H1124   0.992       .  S
O1122      H1123   0.992       .  S
C1125      C1126   1.408       .  A
C1125      C1130   1.412       .  A
C1126      C1127   1.396       .  A
C1126      H1131   1.083       .  S
C1127      C1128   1.405       .  A
C1127      O1132   1.373       .  S
C1128      C1129   1.403       .  A
C1129      C1130   1.403       .  A
C1129      H1133   1.084       .  S
C1130      O1134   1.371       .  S
O1132      H1136   0.992       .  S
O1134      H1135   0.992       .  S
C1137      C1138   1.401       .  A
C1137      C1142   1.408       .  A
C1138      C1139   1.396       .  A
C1138      H1143   1.084       .  S
C1139      C1140   1.415       .  A
C1139      O1144   1.372       .  S
C1140      C1141   1.407       .  A
C1141      C1142   1.402       .  A
C1141      H1145   1.083       .  S
C1142      O1146   1.372       .  S
O1144      H1148   0.992       .  S
O1146      H1147   0.992       .  S
C1149      C1150   1.400       .  A
C1149      C1154   1.409       .  A
C1150      C1151   1.396       .  A
C1150      H1155   1.084       .  S
C1151      C1152   1.416       .  A
C1151      O1156   1.372       .  S
C1152      C1153   1.406       .  A
C1153      C1154   1.404       .  A
C1153      H1157   1.083       .  S
C1154      O1158   1.372       .  S
O1156      H1160   0.992       .  S
O1158      H1159   0.992       .  S
C1161      C1162   1.408       .  A
C1161      C1166   1.417       .  A
C1162      C1163   1.404       .  A
C1162      H1167   1.083       .  S
C1163      C1164   1.407       .  A
C1163      O1168   1.371       .  S
C1164      C1165   1.399       .  A
C1165      C1166   1.396       .  A
C1165      H1169   1.084       .  S
C1166      O1170   1.372       .  S
O1168      H1172   0.992       .  S
O1170      H1171   0.992       .  S
C1173      C1174   1.409       .  A
C1173      C1178   1.415       .  A
C1174      C1175   1.402       .  A
C1174      H1179   1.082       .  S
C1175      C1176   1.407       .  A
C1175      O1180   1.374       .  S
C1176      C1177   1.402       .  A
C1177      C1178   1.396       .  A
C1177      H1181   1.083       .  S
C1178      O1182   1.371       .  S
O1180      H1184   0.992       .  S
O1182      H1183   0.992       .  S
C1185      C1186   1.407       .  A
C1185      C1190   1.416       .  A
C1186      C1187   1.403       .  A
C1186      H1191   1.083       .  S
C1187      C1188   1.407       .  A
C1187      O1192   1.371       .  S
C1188      C1189   1.400       .  A
C1189      C1190   1.396       .  A
C1189      H1193   1.084       .  S
C1190      O1194   1.372       .  S
O1192      H1196   0.992       .  S
O1194      H1195   0.992       .  S
C1197      C1198   1.401       .  A
C1197      C1202   1.410       .  A
C1198      C1199   1.395       .  A
C1198      H1203   1.084       .  S
C1199      C1200   1.414       .  A
C1199      O1204   1.372       .  S
C1200      C1201   1.406       .  A
C1201      C1202   1.404       .  A
C1201      H1205   1.083       .  S
C1202      O1206   1.372       .  S
O1204      H1208   0.992       .  S
O1206      H1207   0.992       .  S
C1209      C1210   1.409       .  A
C1209      C1214   1.416       .  A
C1210      C1211   1.399       .  A
C1210      H1215   1.082       .  S
C1211      C1212   1.408       .  A
C1211      O1216   1.371       .  S
C1212      C1213   1.401       .  A
C1213      C1214   1.397       .  A
C1213      H1217   1.083       .  S
C1214      O1218   1.371       .  S
O1216      H1220   0.992       .  S
O1218      H1219   0.992       .  S
C1221      C1222   1.401       .  A
C1221      C1226   1.408       .  A
C1222      C1223   1.395       .  A
C1222      H1227   1.084       .  S
C1223      C1224   1.415       .  A
C1223      O1228   1.372       .  S
C1224      C1225   1.407       .  A
C1225      C1226   1.404       .  A
C1225      H1229   1.083       .  S
C1226      O1230   1.372       .  S
O1228      H1232   0.992       .  S
O1230      H1231   0.992       .  S
C1233      C1234   1.406       .  A
C1233      C1238   1.405       .  A
C1234      C1235   1.403       .  A
C1234      H1239   1.084       .  S
C1235      C1236   1.406       .  A
C1235      O1240   1.371       .  S
C1236      C1237   1.403       .  A
C1237      C1238   1.397       .  A
C1237      H1241   1.084       .  S
C1238      O1242   1.370       .  S
O1240      H1244   0.992       .  S
O1242      H1243   0.992       .  S
C1245      C1246   1.408       .  A
C1245      C1250   1.414       .  A
C1246      C1247   1.401       .  A
C1246      H1251   1.082       .  S
C1247      C1248   1.407       .  A
C1247      O2532   1.374       .  S
C1248      C1249   1.403       .  A
C1249      C1250   1.400       .  A
C1249      H1253   1.083       .  S
C1250      O1254   1.373       .  S
O1252      C2527   1.374       .  S
O1252      H1256   0.992       .  S
O1254      H1255   0.993       .  S
C1257      C1258   1.407       .  A
C1257      C1262   1.416       .  A
C1258      C1259   1.401       .  A
C1258      H1263   1.083       .  S
C1259      C1260   1.405       .  A
C1259      O1264   1.371       .  S
C1260      C1261   1.397       .  A
C1261      C1262   1.402       .  A
C1261      H1265   1.084       .  S
C1262      O1266   1.374       .  S
O1264      H1268   0.992       .  S
O1266      H1267   0.992       .  S
C1269      C1270   1.403       .  A
C1269      C1274   1.411       .  A
C1270      C1271   1.401       .  A
C1270      H1275   1.083       .  S
C1271      C1272   1.408       .  A
C1271      O1276   1.372       .  S
C1272      C1273   1.401       .  A
C1273      C1274   1.400       .  A
C1273      H1277   1.084       .  S
C1274      O1278   1.372       .  S
O1276      H1280   0.992       .  S
O1278      H1279   0.992       .  S
C1281      C1282   1.412       .  A
C1281      C1286   1.410       .  A
C1281      C1565   1.495       .  S
C1282      C1283   1.402       .  A
C1282      H1287   1.083       .  S
C1283      C1284   1.398       .  A
C1283      C1592   1.476       .  S
C1284      C1285   1.398       .  A
C1284      H1288   1.084       .  S
C1285      C1286   1.400       .  A
C1285      C1580   1.472       .  S
C1286      H1289   1.081       .  S
C1290      C1291   1.412       .  A
C1290      C1295   1.412       .  A
C1290      C1529   1.496       .  S
C1291      C1292   1.401       .  A
C1291      H1296   1.082       .  S
C1292      C1293   1.397       .  A
C1292      C1556   1.478       .  S
C1293      C1294   1.399       .  A
C1293      H1297   1.085       .  S
C1294      C1295   1.403       .  A
C1294      C1541   1.481       .  S
C1295      H1298   1.082       .  S
O1299      C1307   1.270       .  A
O1299     Cr1637   2.025       .  S
O1300      C1301   1.258       .  A
O1300     Cr1637   1.965       .  S
C1301      C1553   1.475       .  S
C1301      O1302   1.269       .  A
O1302     Cr1638   2.018       .  S
O1303      C1304   1.258       .  A
O1303     Cr1638   1.965       .  S
C1304      C1577   1.487       .  S
C1304      O1305   1.269       .  A
O1305     Cr1639   2.021   1_554  S
O1306      C1307   1.256       .  A
O1306     Cr1639   1.958   1_554  S
C1307      C1505   1.487       .  S
O1308      C1316   1.256       .  A
O1308     Cr1317   1.958       .  S
O1309      C1310   1.268       .  A
O1309     Cr1317   2.019       .  S
C1310      C1544   1.486       .  S
C1310      O1311   1.257       .  A
O1311     Cr1318   1.962       .  S
O1312      C1313   1.268       .  A
O1312     Cr1318   2.018       .  S
C1313      C1589   1.476       .  S
C1313      O1314   1.258       .  A
O1314     Cr1319   1.964       .  S
O1315      C1316   1.269       .  A
O1315     Cr1319   2.025       .  S
C1316      C1520   1.484       .  S
Cr1317     O1619   2.025       .  S
Cr1317     O1620   1.965       .  S
Cr1317     O1320   1.774       .  S
Cr1318     O1622   2.018       .  S
Cr1318     O1623   1.965       .  S
Cr1318     O1320   1.768       .  S
Cr1319     O1625   2.021       .  S
Cr1319     O1626   1.958       .  S
Cr1319     O1320   1.772       .  S
C1321      C1322   1.411       .  A
C1321      C1326   1.412       .  A
C1321      C1493   1.494       .  S
C1322      C1323   1.402       .  A
C1322      H1327   1.082       .  S
C1323      C1324   1.399       .  A
C1323      C1517   1.483       .  S
C1324      C1325   1.399       .  A
C1324      H1328   1.084       .  S
C1325      C1326   1.402       .  A
C1325      C1508   1.479       .  S
C1326      H1329   1.083       .  S
O1330      C1338   1.270       .  A
O1330     Cr1668   2.024       .  S
O1331      C1332   1.258       .  A
O1331     Cr1668   1.959       .  S
C1332      C1421   1.487       .  S
C1332      O1333   1.271       .  A
O1333     Cr1669   2.029   1_554  S
O1334      C1335   1.256       .  A
O1334     Cr1669   1.957   1_554  S
C1335      C1481   1.488       .  S
C1335      O1336   1.270       .  A
O1336     Cr1670   2.026   1_554  S
O1337      C1338   1.256       .  A
O1337     Cr1670   1.959   1_554  S
C1338      C1460   1.486       .  S
O1339      C1347   1.257       .  A
O1339     Cr1348   1.958       .  S
O1340      C1341   1.269       .  A
O1340     Cr1348   2.022       .  S
C1341      C1433   1.485       .  S
C1341      O1342   1.257       .  A
O1342     Cr1349   1.959       .  S
O1343      C1344   1.271       .  A
O1343     Cr1349   2.028       .  S
C1344      C1472   1.486       .  S
C1344      O1345   1.256       .  A
O1345     Cr1350   1.955       .  S
O1346      C1347   1.270       .  A
O1346     Cr1350   2.025       .  S
C1347      C1445   1.484       .  S
Cr1348     O1650   2.024       .  S
Cr1348     O1651   1.959       .  S
Cr1348     O1351   1.765       .  S
Cr1349     O1653   2.029       .  S
Cr1349     O1654   1.957       .  S
Cr1349     O1351   1.766       .  S
Cr1350     O1656   2.026       .  S
Cr1350     O1657   1.959       .  S
Cr1350     O1351   1.766       .  S
C1352      C1353   1.415       .  A
C1352      C1357   1.413       .  A
C1352      C1409   1.500       .  S
C1353      C1354   1.401       .  A
C1353      H1358   1.082       .  S
C1354      C1355   1.397       .  A
C1354      C1484   1.477       .  S
C1355      C1356   1.398       .  A
C1355      H1359   1.085       .  S
C1356      C1357   1.402       .  A
C1356      C1469   1.480       .  S
C1357      H1360   1.081       .  S
C1361      C1362   1.411       .  A
C1361      C1366   1.411       .  A
C1361      C1397   1.493       .  S
C1362      C1363   1.402       .  A
C1362      H1367   1.081       .  S
C1363      C1364   1.399       .  A
C1363      C1457   1.480       .  S
C1364      C1365   1.398       .  A
C1364      H1368   1.084       .  S
C1365      C1366   1.400       .  A
C1365      C1448   1.477       .  S
C1366      H1369   1.083       .  S
C1370      C1371   1.411       .  A
C1370      C1375   1.412       .  A
C1370      C1388   1.494       .  S
C1371      C1372   1.398       .  A
C1371      H1376   1.083       .  S
C1372      C1373   1.396       .  A
C1372      C1436   1.473       .  S
C1373      C1374   1.400       .  A
C1373      H1377   1.084       .  S
C1374      C1375   1.404       .  A
C1374      C1424   1.480       .  S
C1375      H1378   1.082       .  S
C1379      C2020   1.419   1_545  A
C1379      C1568   1.494       .  S
C1380      C2019   1.419       .  A
C1380      C1381   1.416       .  A
C1380      C1400   1.491       .  S
C1381      C1532   1.494       .  S
C1382      C2023   1.418       .  A
C1382      C1412   1.491       .  S
C1383      C2022   1.418   1_545  A
C1383      C1384   1.419       .  A
C1383      C1496   1.493       .  S
C1384      C1385   1.494       .  S
C1385      C1386   1.404       .  A
C1385      C1390   1.406       .  A
C1386      C1387   1.401       .  A
C1387      C1388   1.414       .  A
C1387      O1392   1.372       .  S
C1388      C1389   1.408       .  A
C1389      C1390   1.399       .  A
C1389      H1393   1.082       .  S
C1390      O1394   1.374       .  S
O1394      H1395   0.992       .  S
C1397      C1398   1.408       .  A
C1397      C1402   1.414       .  A
C1398      C1399   1.400       .  A
C1398      H1403   1.082       .  S
C1399      C1400   1.406       .  A
C1399      O2044   1.374       .  S
C1400      C1401   1.402       .  A
C1401      C1402   1.400       .  A
C1401      H1405   1.084       .  S
C1402      O1406   1.373       .  S
O1404      C2039   1.374       .  S
O1404      H1408   0.991   1_565  S
O1406      H1407   0.993       .  S
C1409      C1410   1.410       .  A
C1409      C1414   1.419       .  A
C1410      C1411   1.397       .  A
C1410      H1415   1.082       .  S
C1411      C1412   1.405       .  A
C1412      C1413   1.400       .  A
C1413      C1414   1.399       .  A
C1413      H2057   1.083       .  S
C1414      O1418   1.371       .  S
O1416      H1420   0.992       .  S
H1417      C2053   1.083       .  S
O1418      H2059   0.991       .  S
H1419      O2058   0.991       .  S
C1421      C1422   1.408       .  A
C1421      C1426   1.413       .  A
C1422      C1423   1.397       .  A
C1422      H1427   1.083       .  S
C1423      C1424   1.405       .  A
C1423      O1428   1.373       .  S
C1424      C1425   1.404       .  A
C1425      C1426   1.404       .  A
C1425      H1429   1.084       .  S
C1426      O1430   1.371       .  S
O1428      H1432   0.992       .  S
O1430      H1431   0.992       .  S
C1433      C1434   1.409       .  A
C1433      C1438   1.413       .  A
C1434      C1435   1.397       .  A
C1434      H1439   1.083       .  S
C1435      C1436   1.402       .  A
C1435      O1440   1.372       .  S
C1436      C1437   1.402       .  A
C1437      C1438   1.402       .  A
C1437      H1441   1.084       .  S
C1438      O1442   1.371       .  S
O1440      H1444   0.992       .  S
O1442      H1443   0.992       .  S
C1445      C1446   1.408       .  A
C1445      C1450   1.412       .  A
C1446      C1447   1.396       .  A
C1446      H1451   1.083       .  S
C1447      C1448   1.405       .  A
C1447      O1452   1.373       .  S
C1448      C1449   1.403       .  A
C1449      C1450   1.403       .  A
C1449      H1453   1.084       .  S
C1450      O1454   1.371       .  S
O1452      H1456   0.992       .  S
O1454      H1455   0.992       .  S
C1457      C1458   1.401       .  A
C1457      C1462   1.408       .  A
C1458      C1459   1.396       .  A
C1458      H1463   1.084       .  S
C1459      C1460   1.415       .  A
C1459      O1464   1.372       .  S
C1460      C1461   1.407       .  A
C1461      C1462   1.402       .  A
C1461      H1465   1.083       .  S
C1462      O1466   1.372       .  S
O1464      H1468   0.992       .  S
O1466      H1467   0.992       .  S
C1469      C1470   1.400       .  A
C1469      C1474   1.409       .  A
C1470      C1471   1.396       .  A
C1470      H1475   1.084       .  S
C1471      C1472   1.416       .  A
C1471      O1476   1.372       .  S
C1472      C1473   1.406       .  A
C1473      C1474   1.404       .  A
C1473      H1477   1.083       .  S
C1474      O1478   1.372       .  S
O1476      H1480   0.992       .  S
O1478      H1479   0.992       .  S
C1481      C1482   1.408       .  A
C1481      C1486   1.417       .  A
C1482      C1483   1.404       .  A
C1482      H1487   1.083       .  S
C1483      C1484   1.407       .  A
C1483      O1488   1.371       .  S
C1484      C1485   1.399       .  A
C1485      C1486   1.396       .  A
C1485      H1489   1.084       .  S
C1486      O1490   1.372       .  S
O1488      H1492   0.992       .  S
O1490      H1491   0.992       .  S
C1493      C1494   1.409       .  A
C1493      C1498   1.415       .  A
C1494      C1495   1.402       .  A
C1494      H1499   1.082       .  S
C1495      C1496   1.407       .  A
C1495      O1500   1.374       .  S
C1496      C1497   1.402       .  A
C1497      C1498   1.396       .  A
C1497      H1501   1.083       .  S
C1498      O1502   1.371       .  S
O1500      H1504   0.992       .  S
O1502      H1503   0.992       .  S
C1505      C1506   1.407       .  A
C1505      C1510   1.416       .  A
C1506      C1507   1.403       .  A
C1506      H1511   1.083       .  S
C1507      C1508   1.407       .  A
C1507      O1512   1.371       .  S
C1508      C1509   1.400       .  A
C1509      C1510   1.396       .  A
C1509      H1513   1.084       .  S
C1510      O1514   1.372       .  S
O1512      H1516   0.992       .  S
O1514      H1515   0.992       .  S
C1517      C1518   1.401       .  A
C1517      C1522   1.410       .  A
C1518      C1519   1.395       .  A
C1518      H1523   1.084       .  S
C1519      C1520   1.414       .  A
C1519      O1524   1.372       .  S
C1520      C1521   1.406       .  A
C1521      C1522   1.404       .  A
C1521      H1525   1.083       .  S
C1522      O1526   1.372       .  S
O1524      H1528   0.992       .  S
O1526      H1527   0.992       .  S
C1529      C1530   1.409       .  A
C1529      C1534   1.416       .  A
C1530      C1531   1.399       .  A
C1530      H1535   1.082       .  S
C1531      C1532   1.408       .  A
C1531      O1536   1.371       .  S
C1532      C1533   1.401       .  A
C1533      C1534   1.397       .  A
C1533      H1537   1.083       .  S
C1534      O1538   1.371       .  S
O1536      H1540   0.992       .  S
O1538      H1539   0.992       .  S
C1541      C1542   1.401       .  A
C1541      C1546   1.408       .  A
C1542      C1543   1.395       .  A
C1542      H1547   1.084       .  S
C1543      C1544   1.415       .  A
C1543      O1548   1.372       .  S
C1544      C1545   1.407       .  A
C1545      C1546   1.404       .  A
C1545      H1549   1.083       .  S
C1546      O1550   1.372       .  S
O1548      H1552   0.992       .  S
O1550      H1551   0.992       .  S
C1553      C1554   1.406       .  A
C1553      C1558   1.405       .  A
C1554      C1555   1.403       .  A
C1554      H1559   1.084       .  S
C1555      C1556   1.406       .  A
C1555      O1560   1.371       .  S
C1556      C1557   1.403       .  A
C1557      C1558   1.397       .  A
C1557      H1561   1.084       .  S
C1558      O1562   1.370       .  S
O1560      H1564   0.992       .  S
O1562      H1563   0.992       .  S
C1565      C1566   1.408       .  A
C1565      C1570   1.414       .  A
C1566      C1567   1.401       .  A
C1566      H1571   1.082       .  S
C1567      C1568   1.407       .  A
C1568      C1569   1.403       .  A
C1569      C1570   1.400       .  A
C1569      H1573   1.083       .  S
C1570      O1574   1.373       .  S
O1572      H1576   0.992       .  S
O1574      H1575   0.993       .  S
C1577      C1578   1.407       .  A
C1577      C1582   1.416       .  A
C1578      C1579   1.401       .  A
C1578      H1583   1.083       .  S
C1579      C1580   1.405       .  A
C1579      O1584   1.371       .  S
C1580      C1581   1.397       .  A
C1581      C1582   1.402       .  A
C1581      H1585   1.084       .  S
C1582      O1586   1.374       .  S
O1584      H1588   0.992       .  S
O1586      H1587   0.992       .  S
C1589      C1590   1.403       .  A
C1589      C1594   1.411       .  A
C1590      C1591   1.401       .  A
C1590      H1595   1.083       .  S
C1591      C1592   1.408       .  A
C1591      O1596   1.372       .  S
C1592      C1593   1.401       .  A
C1593      C1594   1.400       .  A
C1593      H1597   1.084       .  S
C1594      O1598   1.372       .  S
O1596      H1600   0.992       .  S
O1598      H1599   0.992       .  S
C1601      C1602   1.412       .  A
C1601      C1606   1.410       .  A
C1601      C1885   1.495       .  S
C1602      C1603   1.402       .  A
C1602      H1607   1.083       .  S
C1603      C1604   1.398       .  A
C1603      C1912   1.476       .  S
C1604      C1605   1.398       .  A
C1604      H1608   1.084       .  S
C1605      C1606   1.400       .  A
C1605      C1900   1.472       .  S
C1606      H1609   1.081       .  S
C1610      C1611   1.412       .  A
C1610      C1615   1.412       .  A
C1610      C1849   1.496       .  S
C1611      C1612   1.401       .  A
C1611      H1616   1.082       .  S
C1612      C1613   1.397       .  A
C1612      C1876   1.478       .  S
C1613      C1614   1.399       .  A
C1613      H1617   1.085       .  S
C1614      C1615   1.403       .  A
C1614      C1861   1.481       .  S
C1615      H1618   1.082       .  S
O1619      C1627   1.270       .  A
O1620      C1621   1.258       .  A
C1621      C1873   1.475       .  S
C1621      O1622   1.269       .  A
O1623      C1624   1.258       .  A
C1624      C1897   1.487       .  S
C1624      O1625   1.269       .  A
O1626      C1627   1.256       .  A
C1627      C1825   1.487       .  S
O1628      C1636   1.256       .  A
O1628     Cr1637   1.958   1_556  S
O1629      C1630   1.268       .  A
O1629     Cr1637   2.019   1_556  S
C1630      C1864   1.486       .  S
C1630      O1631   1.257       .  A
O1631     Cr1638   1.962   1_556  S
O1632      C1633   1.268       .  A
O1632     Cr1638   2.018   1_556  S
C1633      C1909   1.476       .  S
C1633      O1634   1.258       .  A
O1634     Cr1639   1.964       .  S
O1635      C1636   1.269       .  A
O1635     Cr1639   2.025       .  S
C1636      C1840   1.484       .  S
Cr1637     O1640   1.774       .  S
Cr1638     O1640   1.768       .  S
Cr1639     O1640   1.772   1_556  S
C1641      C1642   1.411       .  A
C1641      C1646   1.412       .  A
C1641      C1813   1.494       .  S
C1642      C1643   1.402       .  A
C1642      H1647   1.082       .  S
C1643      C1644   1.399       .  A
C1643      C1837   1.483       .  S
C1644      C1645   1.399       .  A
C1644      H1648   1.084       .  S
C1645      C1646   1.402       .  A
C1645      C1828   1.479       .  S
C1646      H1649   1.083       .  S
O1650      C1658   1.270       .  A
O1651      C1652   1.258       .  A
C1652      C1741   1.487       .  S
C1652      O1653   1.271       .  A
O1654      C1655   1.256       .  A
C1655      C1801   1.488       .  S
C1655      O1656   1.270       .  A
O1657      C1658   1.256       .  A
C1658      C1780   1.486       .  S
O1659      C1667   1.257       .  A
O1659     Cr1668   1.958   1_556  S
O1660      C1661   1.269       .  A
O1660     Cr1668   2.022   1_556  S
C1661      C1753   1.485       .  S
C1661      O1662   1.257       .  A
O1662     Cr1669   1.959       .  S
O1663      C1664   1.271       .  A
O1663     Cr1669   2.028       .  S
C1664      C1792   1.486       .  S
C1664      O1665   1.256       .  A
O1665     Cr1670   1.955       .  S
O1666      C1667   1.270       .  A
O1666     Cr1670   2.025       .  S
C1667      C1765   1.484       .  S
Cr1668     O1671   1.765   1_554  S
Cr1669     O1671   1.766       .  S
Cr1670     O1671   1.766       .  S
C1672      C1673   1.415       .  A
C1672      C1677   1.413       .  A
C1672      C1729   1.500       .  S
C1673      C1674   1.401       .  A
C1673      H1678   1.082       .  S
C1674      C1675   1.397       .  A
C1674      C1804   1.477       .  S
C1675      C1676   1.398       .  A
C1675      H1679   1.085       .  S
C1676      C1677   1.402       .  A
C1676      C1789   1.480       .  S
C1677      H1680   1.081       .  S
C1681      C1682   1.411       .  A
C1681      C1686   1.411       .  A
C1681      C1717   1.493       .  S
C1682      C1683   1.402       .  A
C1682      H1687   1.081       .  S
C1683      C1684   1.399       .  A
C1683      C1777   1.480       .  S
C1684      C1685   1.398       .  A
C1684      H1688   1.084       .  S
C1685      C1686   1.400       .  A
C1685      C1768   1.477       .  S
C1686      H1689   1.083       .  S
C1690      C1691   1.411       .  A
C1690      C1695   1.412       .  A
C1690      C1708   1.494       .  S
C1691      C1692   1.398       .  A
C1691      H1696   1.083       .  S
C1692      C1693   1.396       .  A
C1692      C1756   1.473       .  S
C1693      C1694   1.400       .  A
C1693      H1697   1.084       .  S
C1694      C1695   1.404       .  A
C1694      C1744   1.480       .  S
C1695      H1698   1.082       .  S
C1699      C2340   1.419   1_545  A
C1699      C1888   1.494       .  S
C1700      C2339   1.419       .  A
C1700      C1701   1.416       .  A
C1700      C1720   1.491       .  S
C1701      C1852   1.494       .  S
C1702      C2343   1.418       .  A
C1702      C1732   1.491       .  S
C1703      C2342   1.418   1_545  A
C1703      C1704   1.419       .  A
C1703      C1816   1.493       .  S
C1704      C1705   1.494       .  S
C1705      C1706   1.404       .  A
C1705      C1710   1.406       .  A
C1706      C1707   1.401       .  A
C1707      C1708   1.414       .  A
C1707      O1712   1.372       .  S
C1708      C1709   1.408       .  A
C1709      C1710   1.399       .  A
C1709      H1713   1.082       .  S
C1710      O1714   1.374       .  S
O1714      H1715   0.992       .  S
C1717      C1718   1.408       .  A
C1717      C1722   1.414       .  A
C1718      C1719   1.400       .  A
C1718      H1723   1.082       .  S
C1719      C1720   1.406       .  A
C1719      O2364   1.374       .  S
C1720      C1721   1.402       .  A
C1721      C1722   1.400       .  A
C1721      H1725   1.084       .  S
C1722      O1726   1.373       .  S
O1724      C2359   1.374       .  S
O1724      H1728   0.991   1_565  S
O1726      H1727   0.993       .  S
C1729      C1730   1.410       .  A
C1729      C1734   1.419       .  A
C1730      C1731   1.397       .  A
C1730      H1735   1.082       .  S
C1731      C1732   1.405       .  A
C1732      C1733   1.400       .  A
C1733      C1734   1.399       .  A
C1733      H2377   1.083       .  S
C1734      O1738   1.371       .  S
O1736      H1740   0.992       .  S
H1737      C2373   1.083       .  S
O1738      H2379   0.991       .  S
H1739      O2378   0.991       .  S
C1741      C1742   1.408       .  A
C1741      C1746   1.413       .  A
C1742      C1743   1.397       .  A
C1742      H1747   1.083       .  S
C1743      C1744   1.405       .  A
C1743      O1748   1.373       .  S
C1744      C1745   1.404       .  A
C1745      C1746   1.404       .  A
C1745      H1749   1.084       .  S
C1746      O1750   1.371       .  S
O1748      H1752   0.992       .  S
O1750      H1751   0.992       .  S
C1753      C1754   1.409       .  A
C1753      C1758   1.413       .  A
C1754      C1755   1.397       .  A
C1754      H1759   1.083       .  S
C1755      C1756   1.402       .  A
C1755      O1760   1.372       .  S
C1756      C1757   1.402       .  A
C1757      C1758   1.402       .  A
C1757      H1761   1.084       .  S
C1758      O1762   1.371       .  S
O1760      H1764   0.992       .  S
O1762      H1763   0.992       .  S
C1765      C1766   1.408       .  A
C1765      C1770   1.412       .  A
C1766      C1767   1.396       .  A
C1766      H1771   1.083       .  S
C1767      C1768   1.405       .  A
C1767      O1772   1.373       .  S
C1768      C1769   1.403       .  A
C1769      C1770   1.403       .  A
C1769      H1773   1.084       .  S
C1770      O1774   1.371       .  S
O1772      H1776   0.992       .  S
O1774      H1775   0.992       .  S
C1777      C1778   1.401       .  A
C1777      C1782   1.408       .  A
C1778      C1779   1.396       .  A
C1778      H1783   1.084       .  S
C1779      C1780   1.415       .  A
C1779      O1784   1.372       .  S
C1780      C1781   1.407       .  A
C1781      C1782   1.402       .  A
C1781      H1785   1.083       .  S
C1782      O1786   1.372       .  S
O1784      H1788   0.992       .  S
O1786      H1787   0.992       .  S
C1789      C1790   1.400       .  A
C1789      C1794   1.409       .  A
C1790      C1791   1.396       .  A
C1790      H1795   1.084       .  S
C1791      C1792   1.416       .  A
C1791      O1796   1.372       .  S
C1792      C1793   1.406       .  A
C1793      C1794   1.404       .  A
C1793      H1797   1.083       .  S
C1794      O1798   1.372       .  S
O1796      H1800   0.992       .  S
O1798      H1799   0.992       .  S
C1801      C1802   1.408       .  A
C1801      C1806   1.417       .  A
C1802      C1803   1.404       .  A
C1802      H1807   1.083       .  S
C1803      C1804   1.407       .  A
C1803      O1808   1.371       .  S
C1804      C1805   1.399       .  A
C1805      C1806   1.396       .  A
C1805      H1809   1.084       .  S
C1806      O1810   1.372       .  S
O1808      H1812   0.992       .  S
O1810      H1811   0.992       .  S
C1813      C1814   1.409       .  A
C1813      C1818   1.415       .  A
C1814      C1815   1.402       .  A
C1814      H1819   1.082       .  S
C1815      C1816   1.407       .  A
C1815      O1820   1.374       .  S
C1816      C1817   1.402       .  A
C1817      C1818   1.396       .  A
C1817      H1821   1.083       .  S
C1818      O1822   1.371       .  S
O1820      H1824   0.992       .  S
O1822      H1823   0.992       .  S
C1825      C1826   1.407       .  A
C1825      C1830   1.416       .  A
C1826      C1827   1.403       .  A
C1826      H1831   1.083       .  S
C1827      C1828   1.407       .  A
C1827      O1832   1.371       .  S
C1828      C1829   1.400       .  A
C1829      C1830   1.396       .  A
C1829      H1833   1.084       .  S
C1830      O1834   1.372       .  S
O1832      H1836   0.992       .  S
O1834      H1835   0.992       .  S
C1837      C1838   1.401       .  A
C1837      C1842   1.410       .  A
C1838      C1839   1.395       .  A
C1838      H1843   1.084       .  S
C1839      C1840   1.414       .  A
C1839      O1844   1.372       .  S
C1840      C1841   1.406       .  A
C1841      C1842   1.404       .  A
C1841      H1845   1.083       .  S
C1842      O1846   1.372       .  S
O1844      H1848   0.992       .  S
O1846      H1847   0.992       .  S
C1849      C1850   1.409       .  A
C1849      C1854   1.416       .  A
C1850      C1851   1.399       .  A
C1850      H1855   1.082       .  S
C1851      C1852   1.408       .  A
C1851      O1856   1.371       .  S
C1852      C1853   1.401       .  A
C1853      C1854   1.397       .  A
C1853      H1857   1.083       .  S
C1854      O1858   1.371       .  S
O1856      H1860   0.992       .  S
O1858      H1859   0.992       .  S
C1861      C1862   1.401       .  A
C1861      C1866   1.408       .  A
C1862      C1863   1.395       .  A
C1862      H1867   1.084       .  S
C1863      C1864   1.415       .  A
C1863      O1868   1.372       .  S
C1864      C1865   1.407       .  A
C1865      C1866   1.404       .  A
C1865      H1869   1.083       .  S
C1866      O1870   1.372       .  S
O1868      H1872   0.992       .  S
O1870      H1871   0.992       .  S
C1873      C1874   1.406       .  A
C1873      C1878   1.405       .  A
C1874      C1875   1.403       .  A
C1874      H1879   1.084       .  S
C1875      C1876   1.406       .  A
C1875      O1880   1.371       .  S
C1876      C1877   1.403       .  A
C1877      C1878   1.397       .  A
C1877      H1881   1.084       .  S
C1878      O1882   1.370       .  S
O1880      H1884   0.992       .  S
O1882      H1883   0.992       .  S
C1885      C1886   1.408       .  A
C1885      C1890   1.414       .  A
C1886      C1887   1.401       .  A
C1886      H1891   1.082       .  S
C1887      C1888   1.407       .  A
C1888      C1889   1.403       .  A
C1889      C1890   1.400       .  A
C1889      H1893   1.083       .  S
C1890      O1894   1.373       .  S
O1892      H1896   0.992       .  S
O1894      H1895   0.993       .  S
C1897      C1898   1.407       .  A
C1897      C1902   1.416       .  A
C1898      C1899   1.401       .  A
C1898      H1903   1.083       .  S
C1899      C1900   1.405       .  A
C1899      O1904   1.371       .  S
C1900      C1901   1.397       .  A
C1901      C1902   1.402       .  A
C1901      H1905   1.084       .  S
C1902      O1906   1.374       .  S
O1904      H1908   0.992       .  S
O1906      H1907   0.992       .  S
C1909      C1910   1.403       .  A
C1909      C1914   1.411       .  A
C1910      C1911   1.401       .  A
C1910      H1915   1.083       .  S
C1911      C1912   1.408       .  A
C1911      O1916   1.372       .  S
C1912      C1913   1.401       .  A
C1913      C1914   1.400       .  A
C1913      H1917   1.084       .  S
C1914      O1918   1.372       .  S
O1916      H1920   0.992       .  S
O1918      H1919   0.992       .  S
C1921      C1922   1.412       .  A
C1921      C1926   1.410       .  A
C1921      C2205   1.495       .  S
C1922      C1923   1.402       .  A
C1922      H1927   1.083       .  S
C1923      C1924   1.398       .  A
C1923      C2232   1.476       .  S
C1924      C1925   1.398       .  A
C1924      H1928   1.084       .  S
C1925      C1926   1.400       .  A
C1925      C2220   1.472       .  S
C1926      H1929   1.081       .  S
C1930      C1931   1.412       .  A
C1930      C1935   1.412       .  A
C1930      C2169   1.496       .  S
C1931      C1932   1.401       .  A
C1931      H1936   1.082       .  S
C1932      C1933   1.397       .  A
C1932      C2196   1.478       .  S
C1933      C1934   1.399       .  A
C1933      H1937   1.085       .  S
C1934      C1935   1.403       .  A
C1934      C2181   1.481       .  S
C1935      H1938   1.082       .  S
O1939      C1947   1.270       .  A
O1939     Cr2277   2.025       .  S
O1940      C1941   1.258       .  A
O1940     Cr2277   1.965       .  S
C1941      C2193   1.475       .  S
C1941      O1942   1.269       .  A
O1942     Cr2278   2.018       .  S
O1943      C1944   1.258       .  A
O1943     Cr2278   1.965       .  S
C1944      C2217   1.487       .  S
C1944      O1945   1.269       .  A
O1945     Cr2279   2.021   1_554  S
O1946      C1947   1.256       .  A
O1946     Cr2279   1.958   1_554  S
C1947      C2145   1.487       .  S
O1948      C1956   1.256       .  A
O1948     Cr1957   1.958       .  S
O1949      C1950   1.268       .  A
O1949     Cr1957   2.019       .  S
C1950      C2184   1.486       .  S
C1950      O1951   1.257       .  A
O1951     Cr1958   1.962       .  S
O1952      C1953   1.268       .  A
O1952     Cr1958   2.018       .  S
C1953      C2229   1.476       .  S
C1953      O1954   1.258       .  A
O1954     Cr1959   1.964       .  S
O1955      C1956   1.269       .  A
O1955     Cr1959   2.025       .  S
C1956      C2160   1.484       .  S
Cr1957     O2259   2.025       .  S
Cr1957     O2260   1.965       .  S
Cr1957     O1960   1.774       .  S
Cr1958     O2262   2.018       .  S
Cr1958     O2263   1.965       .  S
Cr1958     O1960   1.768       .  S
Cr1959     O2265   2.021       .  S
Cr1959     O2266   1.958       .  S
Cr1959     O1960   1.772       .  S
C1961      C1962   1.411       .  A
C1961      C1966   1.412       .  A
C1961      C2133   1.494       .  S
C1962      C1963   1.402       .  A
C1962      H1967   1.082       .  S
C1963      C1964   1.399       .  A
C1963      C2157   1.483       .  S
C1964      C1965   1.399       .  A
C1964      H1968   1.084       .  S
C1965      C1966   1.402       .  A
C1965      C2148   1.479       .  S
C1966      H1969   1.083       .  S
O1970      C1978   1.270       .  A
O1970     Cr2308   2.024       .  S
O1971      C1972   1.258       .  A
O1971     Cr2308   1.959       .  S
C1972      C2061   1.487       .  S
C1972      O1973   1.271       .  A
O1973     Cr2309   2.029   1_554  S
O1974      C1975   1.256       .  A
O1974     Cr2309   1.957   1_554  S
C1975      C2121   1.488       .  S
C1975      O1976   1.270       .  A
O1976     Cr2310   2.026   1_554  S
O1977      C1978   1.256       .  A
O1977     Cr2310   1.959   1_554  S
C1978      C2100   1.486       .  S
O1979      C1987   1.257       .  A
O1979     Cr1988   1.958       .  S
O1980      C1981   1.269       .  A
O1980     Cr1988   2.022       .  S
C1981      C2073   1.485       .  S
C1981      O1982   1.257       .  A
O1982     Cr1989   1.959       .  S
O1983      C1984   1.271       .  A
O1983     Cr1989   2.028       .  S
C1984      C2112   1.486       .  S
C1984      O1985   1.256       .  A
O1985     Cr1990   1.955       .  S
O1986      C1987   1.270       .  A
O1986     Cr1990   2.025       .  S
C1987      C2085   1.484       .  S
Cr1988     O2290   2.024       .  S
Cr1988     O2291   1.959       .  S
Cr1988     O1991   1.765       .  S
Cr1989     O2293   2.029       .  S
Cr1989     O2294   1.957       .  S
Cr1989     O1991   1.766       .  S
Cr1990     O2296   2.026       .  S
Cr1990     O2297   1.959       .  S
Cr1990     O1991   1.766       .  S
C1992      C1993   1.415       .  A
C1992      C1997   1.413       .  A
C1992      C2049   1.500       .  S
C1993      C1994   1.401       .  A
C1993      H1998   1.082       .  S
C1994      C1995   1.397       .  A
C1994      C2124   1.477       .  S
C1995      C1996   1.398       .  A
C1995      H1999   1.085       .  S
C1996      C1997   1.402       .  A
C1996      C2109   1.480       .  S
C1997      H2000   1.081       .  S
C2001      C2002   1.411       .  A
C2001      C2006   1.411       .  A
C2001      C2037   1.493       .  S
C2002      C2003   1.402       .  A
C2002      H2007   1.081       .  S
C2003      C2004   1.399       .  A
C2003      C2097   1.480       .  S
C2004      C2005   1.398       .  A
C2004      H2008   1.084       .  S
C2005      C2006   1.400       .  A
C2005      C2088   1.477       .  S
C2006      H2009   1.083       .  S
C2010      C2011   1.411       .  A
C2010      C2015   1.412       .  A
C2010      C2028   1.494       .  S
C2011      C2012   1.398       .  A
C2011      H2016   1.083       .  S
C2012      C2013   1.396       .  A
C2012      C2076   1.473       .  S
C2013      C2014   1.400       .  A
C2013      H2017   1.084       .  S
C2014      C2015   1.404       .  A
C2014      C2064   1.480       .  S
C2015      H2018   1.082       .  S
C2019      C2208   1.494       .  S
C2020      C2021   1.416       .  A
C2020      C2040   1.491       .  S
C2021      C2172   1.494       .  S
C2022      C2052   1.491       .  S
C2023      C2024   1.419       .  A
C2023      C2136   1.493       .  S
C2024      C2025   1.494       .  S
C2025      C2026   1.404       .  A
C2025      C2030   1.406       .  A
C2026      C2027   1.401       .  A
C2027      C2028   1.414       .  A
C2027      O2032   1.372       .  S
C2028      C2029   1.408       .  A
C2029      C2030   1.399       .  A
C2029      H2033   1.082       .  S
C2030      O2034   1.374       .  S
O2034      H2035   0.992       .  S
C2037      C2038   1.408       .  A
C2037      C2042   1.414       .  A
C2038      C2039   1.400       .  A
C2038      H2043   1.082       .  S
C2039      C2040   1.406       .  A
C2040      C2041   1.402       .  A
C2041      C2042   1.400       .  A
C2041      H2045   1.084       .  S
C2042      O2046   1.373       .  S
O2044      H2048   0.991       .  S
O2046      H2047   0.993       .  S
C2049      C2050   1.410       .  A
C2049      C2054   1.419       .  A
C2050      C2051   1.397       .  A
C2050      H2055   1.082       .  S
C2051      C2052   1.405       .  A
C2052      C2053   1.400       .  A
C2053      C2054   1.399       .  A
C2054      O2058   1.371       .  S
O2056      H2060   0.992       .  S
C2061      C2062   1.408       .  A
C2061      C2066   1.413       .  A
C2062      C2063   1.397       .  A
C2062      H2067   1.083       .  S
C2063      C2064   1.405       .  A
C2063      O2068   1.373       .  S
C2064      C2065   1.404       .  A
C2065      C2066   1.404       .  A
C2065      H2069   1.084       .  S
C2066      O2070   1.371       .  S
O2068      H2072   0.992       .  S
O2070      H2071   0.992       .  S
C2073      C2074   1.409       .  A
C2073      C2078   1.413       .  A
C2074      C2075   1.397       .  A
C2074      H2079   1.083       .  S
C2075      C2076   1.402       .  A
C2075      O2080   1.372       .  S
C2076      C2077   1.402       .  A
C2077      C2078   1.402       .  A
C2077      H2081   1.084       .  S
C2078      O2082   1.371       .  S
O2080      H2084   0.992       .  S
O2082      H2083   0.992       .  S
C2085      C2086   1.408       .  A
C2085      C2090   1.412       .  A
C2086      C2087   1.396       .  A
C2086      H2091   1.083       .  S
C2087      C2088   1.405       .  A
C2087      O2092   1.373       .  S
C2088      C2089   1.403       .  A
C2089      C2090   1.403       .  A
C2089      H2093   1.084       .  S
C2090      O2094   1.371       .  S
O2092      H2096   0.992       .  S
O2094      H2095   0.992       .  S
C2097      C2098   1.401       .  A
C2097      C2102   1.408       .  A
C2098      C2099   1.396       .  A
C2098      H2103   1.084       .  S
C2099      C2100   1.415       .  A
C2099      O2104   1.372       .  S
C2100      C2101   1.407       .  A
C2101      C2102   1.402       .  A
C2101      H2105   1.083       .  S
C2102      O2106   1.372       .  S
O2104      H2108   0.992       .  S
O2106      H2107   0.992       .  S
C2109      C2110   1.400       .  A
C2109      C2114   1.409       .  A
C2110      C2111   1.396       .  A
C2110      H2115   1.084       .  S
C2111      C2112   1.416       .  A
C2111      O2116   1.372       .  S
C2112      C2113   1.406       .  A
C2113      C2114   1.404       .  A
C2113      H2117   1.083       .  S
C2114      O2118   1.372       .  S
O2116      H2120   0.992       .  S
O2118      H2119   0.992       .  S
C2121      C2122   1.408       .  A
C2121      C2126   1.417       .  A
C2122      C2123   1.404       .  A
C2122      H2127   1.083       .  S
C2123      C2124   1.407       .  A
C2123      O2128   1.371       .  S
C2124      C2125   1.399       .  A
C2125      C2126   1.396       .  A
C2125      H2129   1.084       .  S
C2126      O2130   1.372       .  S
O2128      H2132   0.992       .  S
O2130      H2131   0.992       .  S
C2133      C2134   1.409       .  A
C2133      C2138   1.415       .  A
C2134      C2135   1.402       .  A
C2134      H2139   1.082       .  S
C2135      C2136   1.407       .  A
C2135      O2140   1.374       .  S
C2136      C2137   1.402       .  A
C2137      C2138   1.396       .  A
C2137      H2141   1.083       .  S
C2138      O2142   1.371       .  S
O2140      H2144   0.992       .  S
O2142      H2143   0.992       .  S
C2145      C2146   1.407       .  A
C2145      C2150   1.416       .  A
C2146      C2147   1.403       .  A
C2146      H2151   1.083       .  S
C2147      C2148   1.407       .  A
C2147      O2152   1.371       .  S
C2148      C2149   1.400       .  A
C2149      C2150   1.396       .  A
C2149      H2153   1.084       .  S
C2150      O2154   1.372       .  S
O2152      H2156   0.992       .  S
O2154      H2155   0.992       .  S
C2157      C2158   1.401       .  A
C2157      C2162   1.410       .  A
C2158      C2159   1.395       .  A
C2158      H2163   1.084       .  S
C2159      C2160   1.414       .  A
C2159      O2164   1.372       .  S
C2160      C2161   1.406       .  A
C2161      C2162   1.404       .  A
C2161      H2165   1.083       .  S
C2162      O2166   1.372       .  S
O2164      H2168   0.992       .  S
O2166      H2167   0.992       .  S
C2169      C2170   1.409       .  A
C2169      C2174   1.416       .  A
C2170      C2171   1.399       .  A
C2170      H2175   1.082       .  S
C2171      C2172   1.408       .  A
C2171      O2176   1.371       .  S
C2172      C2173   1.401       .  A
C2173      C2174   1.397       .  A
C2173      H2177   1.083       .  S
C2174      O2178   1.371       .  S
O2176      H2180   0.992       .  S
O2178      H2179   0.992       .  S
C2181      C2182   1.401       .  A
C2181      C2186   1.408       .  A
C2182      C2183   1.395       .  A
C2182      H2187   1.084       .  S
C2183      C2184   1.415       .  A
C2183      O2188   1.372       .  S
C2184      C2185   1.407       .  A
C2185      C2186   1.404       .  A
C2185      H2189   1.083       .  S
C2186      O2190   1.372       .  S
O2188      H2192   0.992       .  S
O2190      H2191   0.992       .  S
C2193      C2194   1.406       .  A
C2193      C2198   1.405       .  A
C2194      C2195   1.403       .  A
C2194      H2199   1.084       .  S
C2195      C2196   1.406       .  A
C2195      O2200   1.371       .  S
C2196      C2197   1.403       .  A
C2197      C2198   1.397       .  A
C2197      H2201   1.084       .  S
C2198      O2202   1.370       .  S
O2200      H2204   0.992       .  S
O2202      H2203   0.992       .  S
C2205      C2206   1.408       .  A
C2205      C2210   1.414       .  A
C2206      C2207   1.401       .  A
C2206      H2211   1.082       .  S
C2207      C2208   1.407       .  A
C2208      C2209   1.403       .  A
C2209      C2210   1.400       .  A
C2209      H2213   1.083       .  S
C2210      O2214   1.373       .  S
O2212      H2216   0.992       .  S
O2214      H2215   0.993       .  S
C2217      C2218   1.407       .  A
C2217      C2222   1.416       .  A
C2218      C2219   1.401       .  A
C2218      H2223   1.083       .  S
C2219      C2220   1.405       .  A
C2219      O2224   1.371       .  S
C2220      C2221   1.397       .  A
C2221      C2222   1.402       .  A
C2221      H2225   1.084       .  S
C2222      O2226   1.374       .  S
O2224      H2228   0.992       .  S
O2226      H2227   0.992       .  S
C2229      C2230   1.403       .  A
C2229      C2234   1.411       .  A
C2230      C2231   1.401       .  A
C2230      H2235   1.083       .  S
C2231      C2232   1.408       .  A
C2231      O2236   1.372       .  S
C2232      C2233   1.401       .  A
C2233      C2234   1.400       .  A
C2233      H2237   1.084       .  S
C2234      O2238   1.372       .  S
O2236      H2240   0.992       .  S
O2238      H2239   0.992       .  S
C2241      C2242   1.412       .  A
C2241      C2246   1.410       .  A
C2241      C2525   1.495       .  S
C2242      C2243   1.402       .  A
C2242      H2247   1.083       .  S
C2243      C2244   1.398       .  A
C2243      C2552   1.476       .  S
C2244      C2245   1.398       .  A
C2244      H2248   1.084       .  S
C2245      C2246   1.400       .  A
C2245      C2540   1.472       .  S
C2246      H2249   1.081       .  S
C2250      C2251   1.412       .  A
C2250      C2255   1.412       .  A
C2250      C2489   1.496       .  S
C2251      C2252   1.401       .  A
C2251      H2256   1.082       .  S
C2252      C2253   1.397       .  A
C2252      C2516   1.478       .  S
C2253      C2254   1.399       .  A
C2253      H2257   1.085       .  S
C2254      C2255   1.403       .  A
C2254      C2501   1.481       .  S
C2255      H2258   1.082       .  S
O2259      C2267   1.270       .  A
O2260      C2261   1.258       .  A
C2261      C2513   1.475       .  S
C2261      O2262   1.269       .  A
O2263      C2264   1.258       .  A
C2264      C2537   1.487       .  S
C2264      O2265   1.269       .  A
O2266      C2267   1.256       .  A
C2267      C2465   1.487       .  S
O2268      C2276   1.256       .  A
O2268     Cr2277   1.958   1_556  S
O2269      C2270   1.268       .  A
O2269     Cr2277   2.019   1_556  S
C2270      C2504   1.486       .  S
C2270      O2271   1.257       .  A
O2271     Cr2278   1.962   1_556  S
O2272      C2273   1.268       .  A
O2272     Cr2278   2.018   1_556  S
C2273      C2549   1.476       .  S
C2273      O2274   1.258       .  A
O2274     Cr2279   1.964       .  S
O2275      C2276   1.269       .  A
O2275     Cr2279   2.025       .  S
C2276      C2480   1.484       .  S
Cr2277     O2280   1.774       .  S
Cr2278     O2280   1.768       .  S
Cr2279     O2280   1.772   1_556  S
C2281      C2282   1.411       .  A
C2281      C2286   1.412       .  A
C2281      C2453   1.494       .  S
C2282      C2283   1.402       .  A
C2282      H2287   1.082       .  S
C2283      C2284   1.399       .  A
C2283      C2477   1.483       .  S
C2284      C2285   1.399       .  A
C2284      H2288   1.084       .  S
C2285      C2286   1.402       .  A
C2285      C2468   1.479       .  S
C2286      H2289   1.083       .  S
O2290      C2298   1.270       .  A
O2291      C2292   1.258       .  A
C2292      C2381   1.487       .  S
C2292      O2293   1.271       .  A
O2294      C2295   1.256       .  A
C2295      C2441   1.488       .  S
C2295      O2296   1.270       .  A
O2297      C2298   1.256       .  A
C2298      C2420   1.486       .  S
O2299      C2307   1.257       .  A
O2299     Cr2308   1.958   1_556  S
O2300      C2301   1.269       .  A
O2300     Cr2308   2.022   1_556  S
C2301      C2393   1.485       .  S
C2301      O2302   1.257       .  A
O2302     Cr2309   1.959       .  S
O2303      C2304   1.271       .  A
O2303     Cr2309   2.028       .  S
C2304      C2432   1.486       .  S
C2304      O2305   1.256       .  A
O2305     Cr2310   1.955       .  S
O2306      C2307   1.270       .  A
O2306     Cr2310   2.025       .  S
C2307      C2405   1.484       .  S
Cr2308     O2311   1.765   1_554  S
Cr2309     O2311   1.766       .  S
Cr2310     O2311   1.766       .  S
C2312      C2313   1.415       .  A
C2312      C2317   1.413       .  A
C2312      C2369   1.500       .  S
C2313      C2314   1.401       .  A
C2313      H2318   1.082       .  S
C2314      C2315   1.397       .  A
C2314      C2444   1.477       .  S
C2315      C2316   1.398       .  A
C2315      H2319   1.085       .  S
C2316      C2317   1.402       .  A
C2316      C2429   1.480       .  S
C2317      H2320   1.081       .  S
C2321      C2322   1.411       .  A
C2321      C2326   1.411       .  A
C2321      C2357   1.493       .  S
C2322      C2323   1.402       .  A
C2322      H2327   1.081       .  S
C2323      C2324   1.399       .  A
C2323      C2417   1.480       .  S
C2324      C2325   1.398       .  A
C2324      H2328   1.084       .  S
C2325      C2326   1.400       .  A
C2325      C2408   1.477       .  S
C2326      H2329   1.083       .  S
C2330      C2331   1.411       .  A
C2330      C2335   1.412       .  A
C2330      C2348   1.494       .  S
C2331      C2332   1.398       .  A
C2331      H2336   1.083       .  S
C2332      C2333   1.396       .  A
C2332      C2396   1.473       .  S
C2333      C2334   1.400       .  A
C2333      H2337   1.084       .  S
C2334      C2335   1.404       .  A
C2334      C2384   1.480       .  S
C2335      H2338   1.082       .  S
C2339      C2528   1.494       .  S
C2340      C2341   1.416       .  A
C2340      C2360   1.491       .  S
C2341      C2492   1.494       .  S
C2342      C2372   1.491       .  S
C2343      C2344   1.419       .  A
C2343      C2456   1.493       .  S
C2344      C2345   1.494       .  S
C2345      C2346   1.404       .  A
C2345      C2350   1.406       .  A
C2346      C2347   1.401       .  A
C2347      C2348   1.414       .  A
C2347      O2352   1.372       .  S
C2348      C2349   1.408       .  A
C2349      C2350   1.399       .  A
C2349      H2353   1.082       .  S
C2350      O2354   1.374       .  S
O2354      H2355   0.992       .  S
C2357      C2358   1.408       .  A
C2357      C2362   1.414       .  A
C2358      C2359   1.400       .  A
C2358      H2363   1.082       .  S
C2359      C2360   1.406       .  A
C2360      C2361   1.402       .  A
C2361      C2362   1.400       .  A
C2361      H2365   1.084       .  S
C2362      O2366   1.373       .  S
O2364      H2368   0.991       .  S
O2366      H2367   0.993       .  S
C2369      C2370   1.410       .  A
C2369      C2374   1.419       .  A
C2370      C2371   1.397       .  A
C2370      H2375   1.082       .  S
C2371      C2372   1.405       .  A
C2372      C2373   1.400       .  A
C2373      C2374   1.399       .  A
C2374      O2378   1.371       .  S
O2376      H2380   0.992       .  S
C2381      C2382   1.408       .  A
C2381      C2386   1.413       .  A
C2382      C2383   1.397       .  A
C2382      H2387   1.083       .  S
C2383      C2384   1.405       .  A
C2383      O2388   1.373       .  S
C2384      C2385   1.404       .  A
C2385      C2386   1.404       .  A
C2385      H2389   1.084       .  S
C2386      O2390   1.371       .  S
O2388      H2392   0.992       .  S
O2390      H2391   0.992       .  S
C2393      C2394   1.409       .  A
C2393      C2398   1.413       .  A
C2394      C2395   1.397       .  A
C2394      H2399   1.083       .  S
C2395      C2396   1.402       .  A
C2395      O2400   1.372       .  S
C2396      C2397   1.402       .  A
C2397      C2398   1.402       .  A
C2397      H2401   1.084       .  S
C2398      O2402   1.371       .  S
O2400      H2404   0.992       .  S
O2402      H2403   0.992       .  S
C2405      C2406   1.408       .  A
C2405      C2410   1.412       .  A
C2406      C2407   1.396       .  A
C2406      H2411   1.083       .  S
C2407      C2408   1.405       .  A
C2407      O2412   1.373       .  S
C2408      C2409   1.403       .  A
C2409      C2410   1.403       .  A
C2409      H2413   1.084       .  S
C2410      O2414   1.371       .  S
O2412      H2416   0.992       .  S
O2414      H2415   0.992       .  S
C2417      C2418   1.401       .  A
C2417      C2422   1.408       .  A
C2418      C2419   1.396       .  A
C2418      H2423   1.084       .  S
C2419      C2420   1.415       .  A
C2419      O2424   1.372       .  S
C2420      C2421   1.407       .  A
C2421      C2422   1.402       .  A
C2421      H2425   1.083       .  S
C2422      O2426   1.372       .  S
O2424      H2428   0.992       .  S
O2426      H2427   0.992       .  S
C2429      C2430   1.400       .  A
C2429      C2434   1.409       .  A
C2430      C2431   1.396       .  A
C2430      H2435   1.084       .  S
C2431      C2432   1.416       .  A
C2431      O2436   1.372       .  S
C2432      C2433   1.406       .  A
C2433      C2434   1.404       .  A
C2433      H2437   1.083       .  S
C2434      O2438   1.372       .  S
O2436      H2440   0.992       .  S
O2438      H2439   0.992       .  S
C2441      C2442   1.408       .  A
C2441      C2446   1.417       .  A
C2442      C2443   1.404       .  A
C2442      H2447   1.083       .  S
C2443      C2444   1.407       .  A
C2443      O2448   1.371       .  S
C2444      C2445   1.399       .  A
C2445      C2446   1.396       .  A
C2445      H2449   1.084       .  S
C2446      O2450   1.372       .  S
O2448      H2452   0.992       .  S
O2450      H2451   0.992       .  S
C2453      C2454   1.409       .  A
C2453      C2458   1.415       .  A
C2454      C2455   1.402       .  A
C2454      H2459   1.082       .  S
C2455      C2456   1.407       .  A
C2455      O2460   1.374       .  S
C2456      C2457   1.402       .  A
C2457      C2458   1.396       .  A
C2457      H2461   1.083       .  S
C2458      O2462   1.371       .  S
O2460      H2464   0.992       .  S
O2462      H2463   0.992       .  S
C2465      C2466   1.407       .  A
C2465      C2470   1.416       .  A
C2466      C2467   1.403       .  A
C2466      H2471   1.083       .  S
C2467      C2468   1.407       .  A
C2467      O2472   1.371       .  S
C2468      C2469   1.400       .  A
C2469      C2470   1.396       .  A
C2469      H2473   1.084       .  S
C2470      O2474   1.372       .  S
O2472      H2476   0.992       .  S
O2474      H2475   0.992       .  S
C2477      C2478   1.401       .  A
C2477      C2482   1.410       .  A
C2478      C2479   1.395       .  A
C2478      H2483   1.084       .  S
C2479      C2480   1.414       .  A
C2479      O2484   1.372       .  S
C2480      C2481   1.406       .  A
C2481      C2482   1.404       .  A
C2481      H2485   1.083       .  S
C2482      O2486   1.372       .  S
O2484      H2488   0.992       .  S
O2486      H2487   0.992       .  S
C2489      C2490   1.409       .  A
C2489      C2494   1.416       .  A
C2490      C2491   1.399       .  A
C2490      H2495   1.082       .  S
C2491      C2492   1.408       .  A
C2491      O2496   1.371       .  S
C2492      C2493   1.401       .  A
C2493      C2494   1.397       .  A
C2493      H2497   1.083       .  S
C2494      O2498   1.371       .  S
O2496      H2500   0.992       .  S
O2498      H2499   0.992       .  S
C2501      C2502   1.401       .  A
C2501      C2506   1.408       .  A
C2502      C2503   1.395       .  A
C2502      H2507   1.084       .  S
C2503      C2504   1.415       .  A
C2503      O2508   1.372       .  S
C2504      C2505   1.407       .  A
C2505      C2506   1.404       .  A
C2505      H2509   1.083       .  S
C2506      O2510   1.372       .  S
O2508      H2512   0.992       .  S
O2510      H2511   0.992       .  S
C2513      C2514   1.406       .  A
C2513      C2518   1.405       .  A
C2514      C2515   1.403       .  A
C2514      H2519   1.084       .  S
C2515      C2516   1.406       .  A
C2515      O2520   1.371       .  S
C2516      C2517   1.403       .  A
C2517      C2518   1.397       .  A
C2517      H2521   1.084       .  S
C2518      O2522   1.370       .  S
O2520      H2524   0.992       .  S
O2522      H2523   0.992       .  S
C2525      C2526   1.408       .  A
C2525      C2530   1.414       .  A
C2526      C2527   1.401       .  A
C2526      H2531   1.082       .  S
C2527      C2528   1.407       .  A
C2528      C2529   1.403       .  A
C2529      C2530   1.400       .  A
C2529      H2533   1.083       .  S
C2530      O2534   1.373       .  S
O2532      H2536   0.992       .  S
O2534      H2535   0.993       .  S
C2537      C2538   1.407       .  A
C2537      C2542   1.416       .  A
C2538      C2539   1.401       .  A
C2538      H2543   1.083       .  S
C2539      C2540   1.405       .  A
C2539      O2544   1.371       .  S
C2540      C2541   1.397       .  A
C2541      C2542   1.402       .  A
C2541      H2545   1.084       .  S
C2542      O2546   1.374       .  S
O2544      H2548   0.992       .  S
O2546      H2547   0.992       .  S
C2549      C2550   1.403       .  A
C2549      C2554   1.411       .  A
C2550      C2551   1.401       .  A
C2550      H2555   1.083       .  S
C2551      C2552   1.408       .  A
C2551      O2556   1.372       .  S
C2552      C2553   1.401       .  A
C2553      C2554   1.400       .  A
C2553      H2557   1.084       .  S
C2554      O2558   1.372       .  S
O2556      H2560   0.992       .  S
O2558      H2559   0.992       .  S
