geometry optimzed in LAMMPS
_audit_creation_date              2020-11-30 
_audit_creation_method            'lammps2cif' 
_symmetry_space_group_name_H-M    'P1' 
_symmetry_Int_Tables_number       1 
_symmetry_cell_setting            triclinic 
loop_ 
_symmetry_equiv_pos_as_xyz 
  x,y,z 
_cell_length_a                    43.52060962083632 
_cell_length_b                    43.522835213275584 
_cell_length_c                    25.81434924666869 
_cell_angle_alpha                 90.00089517092877 
_cell_angle_beta                  89.99922722890608 
_cell_angle_gamma                 120.90515030529131 
loop_ 
_atom_site_label 
_atom_site_type_symbol 
_atom_site_fract_x 
_atom_site_fract_y 
_atom_site_fract_z 
_atom_site_charge 
C1          C  0.41336365  0.08664664  0.24999687     0.06730
C2          C  0.40411675  0.09589629  0.29704929    -0.09420
C3          C  0.38562144  0.11439500  0.29702120     0.04230
C4          C  0.37641112  0.12360514  0.24999810    -0.07940
C5          C  0.38562022  0.11439356  0.20297427     0.06730
C6          C  0.40411574  0.09589495  0.20294496    -0.07360
H7          H  0.41127161  0.08874202  0.33344518     0.12320
H8          H  0.36208626  0.13793276  0.24999866     0.09850
H9          H  0.41126961  0.08873942  0.16654863     0.09700
C10         C  0.41321079  0.36674106  0.25000235     0.06730
C11         C  0.40435976  0.34800229  0.20294903    -0.09420
C12         C  0.38664228  0.31053316  0.20297629     0.04230
C13         C  0.37782665  0.29188012  0.25000149    -0.07940
C14         C  0.38664156  0.31053327  0.29702716     0.06730
C15         C  0.40435919  0.34800244  0.29705526    -0.07360
H16         H  0.41120403  0.36249112  0.16655176     0.12320
H17         H  0.36405076  0.26285966  0.25000113     0.09850
H18         H  0.41120279  0.36249138  0.33345285     0.09700
O19         O  0.26274875  0.17493034  0.05579144    -0.81740
O20         O  0.32513510  0.23733024  0.05570330    -0.78790
C21         C  0.35579951  0.24811930  0.07365996     1.01720
O22         O  0.37576850  0.23776224  0.05581776    -0.78820
O23         O  0.37520364  0.17591562  0.05570833    -0.81470
C24         C  0.35484337  0.14516171  0.07364814     1.06240
O25         O  0.32405448  0.12483226  0.05579621    -0.74230
O26         O  0.26218877  0.12423465  0.05572734    -0.74420
C27         C  0.25189542  0.14423293  0.07365850     1.06200
O28         O  0.26268394  0.17487962  0.44429781    -0.81740
O29         O  0.32508496  0.23726472  0.44420991    -0.78800
C30         C  0.35578424  0.24811898  0.42634169     1.01740
O31         O  0.37578442  0.23782714  0.44427184    -0.78830
O32         O  0.37518957  0.17596527  0.44420259    -0.81440
C33         C  0.35485958  0.14517773  0.42635013     1.06210
O34         O  0.32410431  0.12481795  0.44429018    -0.74260
O35         O  0.26225345  0.12424957  0.44418459    -0.74410
C36         C  0.25189539  0.14421657  0.42634218     1.06170
Cr37       Cr  0.29670129  0.20331311  0.00000057     1.93740
Cr38       Cr  0.36983274  0.20400063  0.50000012     1.93210
Cr39       Cr  0.29601759  0.13018726  0.49999964     1.39100
O40         O  0.32085181  0.17916574  0.50000012    -1.19450
C41         C  0.13327205  0.08679482  0.25000153     0.06730
C42         C  0.15201133  0.09564741  0.29705423    -0.09420
C43         C  0.18948234  0.11336918  0.29702590     0.04230
C44         C  0.20813672  0.12218736  0.25000059    -0.07940
C45         C  0.18948226  0.11337073  0.20297580     0.06730
C46         C  0.15201128  0.09564880  0.20294839    -0.07360
H47         H  0.13752150  0.08880152  0.33345179     0.12320
H48         H  0.23715891  0.13596685  0.25000018     0.09850
H49         H  0.13752145  0.08880421  0.16655118     0.09700
O50         O  0.14690971  0.29076828  0.44421013    -0.81740
O51         O  0.20930733  0.35315769  0.44429845    -0.78790
C52         C  0.22009257  0.38382002  0.42634342     1.01720
O53         O  0.20973103  0.40378433  0.44418655    -0.78820
O54         O  0.14787645  0.40320831  0.44429356    -0.81470
C55         C  0.11712171  0.38284609  0.42635386     1.06240
O56         O  0.09679421  0.35205811  0.44420596    -0.74230
O57         O  0.09620752  0.29020056  0.44427267    -0.74420
C58         C  0.11621002  0.27991135  0.42634199     1.06200
O59         O  0.14685910  0.29070348  0.05570393    -0.81740
O60         O  0.20924186  0.35310754  0.05579252    -0.78800
C61         C  0.22009215  0.38380466  0.07365969     1.01740
O62         O  0.20979575  0.40380014  0.05572885    -0.78830
O63         O  0.14792600  0.40319427  0.05579967    -0.81440
C64         C  0.11713776  0.38286220  0.07365198     1.06210
O65         O  0.09677999  0.35210772  0.05571166    -0.74260
O66         O  0.09622242  0.29026500  0.05581819    -0.74410
C67         C  0.11619370  0.27991118  0.07366023     1.06170
Cr68       Cr  0.17529094  0.32472183  0.00000130     1.93740
Cr69       Cr  0.17596546  0.39784308  0.00000212     1.93210
Cr70       Cr  0.10215490  0.32402531  0.00000208     1.39100
O71         O  0.15113586  0.34886465  0.00000183    -1.19490
C72         C  0.05861856  0.44137813  0.25000506     0.06730
C73         C  0.06786527  0.43212821  0.20295270    -0.09420
C74         C  0.08635802  0.41362695  0.20298090     0.04230
C75         C  0.09556555  0.40441406  0.25000401    -0.07940
C76         C  0.08635651  0.41362576  0.29702776     0.06730
C77         C  0.06786386  0.43212723  0.29705700    -0.07360
H78         H  0.06071289  0.43928491  0.16655676     0.12320
H79         H  0.10988869  0.39008471  0.25000350     0.09850
H80         H  0.06071016  0.43928296  0.33345331     0.09700
C81         C  0.33871571  0.44124438  0.25000052     0.06730
C82         C  0.31997657  0.43239250  0.20294775    -0.09420
C83         C  0.28250573  0.41467364  0.20297594     0.04230
C84         C  0.26385142  0.40585851  0.25000120    -0.07940
C85         C  0.28250576  0.41467447  0.29702609     0.06730
C86         C  0.31997657  0.43239320  0.29705361    -0.07360
H87         H  0.33446630  0.43923537  0.16655025     0.12320
H88         H  0.23482932  0.39208063  0.25000149     0.09850
H89         H  0.33446631  0.43923683  0.33345085     0.09700
C90         C  0.05877729  0.16128896  0.24999939     0.06730
C91         C  0.06763049  0.18002772  0.29705279    -0.09420
C92         C  0.08535079  0.21749700  0.29702573     0.04230
C93         C  0.09416642  0.23615015  0.25000060    -0.07940
C94         C  0.08534928  0.21749700  0.20297481     0.06730
C95         C  0.06762914  0.18002769  0.20294655    -0.07360
H96         H  0.06078652  0.16553882  0.33344999     0.12320
H97         H  0.10794445  0.26517072  0.25000111     0.09850
H98         H  0.06078391  0.16553873  0.16654890     0.09700
C99         C  0.46739140  0.03261803  0.24999922     0.05890
C100        C  0.44824484  0.49487652  0.25000035     0.05890
C101        C  0.46685260  0.47626734  0.25000184     0.05890
C102        C  0.00459593  0.49541198  0.25000245     0.05890
C103        C  0.02374250  0.03315359  0.25000138     0.05890
C104        C  0.00513463  0.05176268  0.24999982     0.05890
C105        C  0.02472625  0.09057359  0.24999912    -0.09670
C106        C  0.04046235  0.12282399  0.24999894    -0.11230
C107        C  0.40943295  0.47528804  0.25000016    -0.09670
C108        C  0.37718156  0.45955538  0.25000022    -0.11230
C109        C  0.03964119  0.46036289  0.25000521    -0.09670
C110        C  0.02373492  0.47627256  0.25000419    -0.11230
C111        C  0.10397223  0.25568325  0.11678338    -0.09670
C112        C  0.09483169  0.23716014  0.15503004    -0.11230
C113        C  0.09483645  0.23716014  0.34497111    -0.09670
C114        C  0.10398178  0.25568325  0.38321837    -0.11230
C115        C  0.26284269  0.40518958  0.34497118    -0.09670
C116        C  0.24432047  0.39604582  0.38321950    -0.11230
C117        C  0.24432018  0.39603776  0.11678320    -0.09670
C118        C  0.26284253  0.40518611  0.15503120    -0.11230
C119        C  0.10517847  0.39479158  0.38322918    -0.09670
C120        C  0.09605109  0.40392436  0.34497313    -0.11230
C121        C  0.10518770  0.39480064  0.11677782    -0.09670
C122        C  0.09605573  0.40392855  0.15503490    -0.11230
C123        C  0.06255441  0.05274270  0.25000176    -0.09670
C124        C  0.09480593  0.06847871  0.25000186    -0.11230
C125        C  0.22766746  0.13200289  0.11678231    -0.09670
C126        C  0.20914528  0.12285699  0.15503068    -0.11230
C127        C  0.20914543  0.12285218  0.34497056    -0.09670
C128        C  0.22766764  0.13199328  0.38321851    -0.11230
C129        C  0.43152468  0.40520600  0.25000267    -0.09670
C130        C  0.44726074  0.43745641  0.25000249    -0.11230
C131        C  0.36801418  0.27234706  0.38321867    -0.09670
C132        C  0.37715840  0.29087020  0.34497197    -0.11230
C133        C  0.37716165  0.29087012  0.15503101    -0.09670
C134        C  0.36802205  0.27234714  0.11678377    -0.11230
C135        C  0.44825219  0.05175721  0.24999755    -0.09670
C136        C  0.43234415  0.06766506  0.24999662    -0.11230
C137        C  0.36679141  0.13322094  0.11677281    -0.09670
C138        C  0.37592255  0.12409190  0.15502888    -0.11230
C139        C  0.37592681  0.12409643  0.34496729    -0.09670
C140        C  0.36680057  0.13323009  0.38322437    -0.11230
C141        C  0.41336365  0.08664664  0.74999688     0.06730
C142        C  0.40411675  0.09589629  0.79704930    -0.09420
C143        C  0.38562144  0.11439501  0.79702120     0.04230
C144        C  0.37641112  0.12360514  0.74999810    -0.07940
C145        C  0.38562023  0.11439356  0.70297427     0.06730
C146        C  0.40411574  0.09589495  0.70294497    -0.07360
H147        H  0.41127161  0.08874203  0.83344519     0.12320
H148        H  0.36208627  0.13793277  0.74999866     0.09850
H149        H  0.41126962  0.08873943  0.66654864     0.09700
C150        C  0.41321080  0.36674106  0.75000235     0.06730
C151        C  0.40435977  0.34800229  0.70294903    -0.09420
C152        C  0.38664228  0.31053316  0.70297629     0.04230
C153        C  0.37782664  0.29188012  0.75000149    -0.07940
C154        C  0.38664155  0.31053327  0.79702716     0.06730
C155        C  0.40435919  0.34800243  0.79705526    -0.07360
H156        H  0.41120404  0.36249112  0.66655176     0.12320
H157        H  0.36405074  0.26285965  0.75000113     0.09850
H158        H  0.41120279  0.36249138  0.83345285     0.09700
O159        O  0.26274831  0.17492999  0.55579084    -0.81740
O160        O  0.32513477  0.23732980  0.55570390    -0.78790
C161        C  0.35579940  0.24811929  0.57365996     1.01720
O162        O  0.37576861  0.23776268  0.55581716    -0.78820
O163        O  0.37520356  0.17591596  0.55570892    -0.81470
C164        C  0.35484349  0.14516181  0.57364814     1.06240
O165        O  0.32405483  0.12483216  0.55579561    -0.74230
O166        O  0.26218922  0.12423476  0.55572794    -0.74420
C167        C  0.25189543  0.14423282  0.57365850     1.06200
O168        O  0.26268349  0.17487928  0.94429842    -0.81740
O169        O  0.32508461  0.23726428  0.94420931    -0.78800
C170        C  0.35578412  0.24811898  0.92634169     1.01740
O171        O  0.37578452  0.23782758  0.94427244    -0.78830
O172        O  0.37518947  0.17596561  0.94420199    -0.81440
C173        C  0.35485968  0.14517784  0.92635013     1.06210
O174        O  0.32410464  0.12481785  0.94429079    -0.74260
O175        O  0.26225388  0.12424968  0.94418399    -0.74410
C176        C  0.25189538  0.14421647  0.92634218     1.06170
Cr177      Cr  0.29670130  0.20331311  0.50000057     1.93740
Cr178      Cr  0.36983273  0.20400063  0.00000013     1.93210
Cr179      Cr  0.29601758  0.13018727  0.99999964     1.39100
O180        O  0.32085180  0.17916574  0.00000012    -1.19450
C181        C  0.13327206  0.08679483  0.75000152     0.06730
C182        C  0.15201133  0.09564742  0.79705423    -0.09420
C183        C  0.18948234  0.11336919  0.79702589     0.04230
C184        C  0.20813673  0.12218736  0.75000058    -0.07940
C185        C  0.18948226  0.11337073  0.70297580     0.06730
C186        C  0.15201129  0.09564881  0.70294838    -0.07360
H187        H  0.13752150  0.08880153  0.83345178     0.12320
H188        H  0.23715892  0.13596684  0.75000018     0.09850
H189        H  0.13752146  0.08880421  0.66655117     0.09700
O190        O  0.14691011  0.29076881  0.94420943    -0.81740
O191        O  0.20930785  0.35315810  0.94429914    -0.78790
C192        C  0.22009258  0.38382016  0.92634342     1.01720
O193        O  0.20973053  0.40378422  0.94418586    -0.78820
O194        O  0.14787607  0.40320844  0.94429425    -0.81470
C195        C  0.11712160  0.38284598  0.92635387     1.06240
O196        O  0.09679433  0.35205773  0.94420528    -0.74230
O197        O  0.09620741  0.29020007  0.94427337    -0.74420
C198        C  0.11621015  0.27991137  0.92634199     1.06200
O199        O  0.14685948  0.29070398  0.55570462    -0.81740
O200        O  0.20924237  0.35310792  0.55579182    -0.78800
C201        C  0.22009215  0.38380477  0.57365969     1.01740
O202        O  0.20979524  0.40380001  0.55572954    -0.78830
O203        O  0.14792560  0.40319436  0.55579898    -0.81440
C204        C  0.11713762  0.38286206  0.57365198     1.06210
O205        O  0.09678009  0.35210732  0.55571234    -0.74260
O206        O  0.09622229  0.29026448  0.55581749    -0.74410
C207        C  0.11619381  0.27991116  0.57366023     1.06170
Cr208      Cr  0.17529093  0.32472182  0.50000130     1.93740
Cr209      Cr  0.17596545  0.39784306  0.50000212     1.93210
Cr210      Cr  0.10215489  0.32402530  0.50000207     1.39100
O211        O  0.15113585  0.34886464  0.50000182    -1.19490
C212        C  0.05861856  0.44137813  0.75000506     0.06730
C213        C  0.06786525  0.43212820  0.70295269    -0.09420
C214        C  0.08635800  0.41362692  0.70298089     0.04230
C215        C  0.09556554  0.40441404  0.75000400    -0.07940
C216        C  0.08635650  0.41362575  0.79702775     0.06730
C217        C  0.06786386  0.43212723  0.79705700    -0.07360
H218        H  0.06071288  0.43928489  0.66655676     0.12320
H219        H  0.10988866  0.39008468  0.75000350     0.09850
H220        H  0.06071017  0.43928296  0.83345331     0.09700
C221        C  0.33871571  0.44124437  0.75000051     0.06730
C222        C  0.31997657  0.43239249  0.70294774    -0.09420
C223        C  0.28250573  0.41467364  0.70297594     0.04230
C224        C  0.26385142  0.40585852  0.75000120    -0.07940
C225        C  0.28250576  0.41467448  0.79702608     0.06730
C226        C  0.31997657  0.43239320  0.79705360    -0.07360
H227        H  0.33446630  0.43923536  0.66655024     0.12320
H228        H  0.23482932  0.39208064  0.75000149     0.09850
H229        H  0.33446631  0.43923684  0.83345084     0.09700
C230        C  0.05877728  0.16128896  0.74999941     0.06730
C231        C  0.06763048  0.18002773  0.79705281    -0.09420
C232        C  0.08535080  0.21749700  0.79702574     0.04230
C233        C  0.09416642  0.23615015  0.75000061    -0.07940
C234        C  0.08534928  0.21749699  0.70297483     0.06730
C235        C  0.06762913  0.18002769  0.70294657    -0.07360
H236        H  0.06078653  0.16553883  0.83345001     0.12320
H237        H  0.10794446  0.26517072  0.75000111     0.09850
H238        H  0.06078390  0.16553873  0.66654892     0.09700
C239        C  0.46739140  0.03261803  0.74999924     0.05890
C240        C  0.44824484  0.49487651  0.75000034     0.05890
C241        C  0.46685260  0.47626734  0.75000183     0.05890
C242        C  0.00459593  0.49541198  0.75000245     0.05890
C243        C  0.02374250  0.03315360  0.75000138     0.05890
C244        C  0.00513464  0.05176268  0.74999983     0.05890
C245        C  0.02472625  0.09057360  0.74999914    -0.09670
C246        C  0.04046234  0.12282400  0.74999896    -0.11230
C247        C  0.40943295  0.47528803  0.75000015    -0.09670
C248        C  0.37718156  0.45955537  0.75000020    -0.11230
C249        C  0.03964119  0.46036289  0.75000520    -0.09670
C250        C  0.02373493  0.47627256  0.75000418    -0.11230
C251        C  0.10397229  0.25568324  0.61678338    -0.09670
C252        C  0.09483171  0.23716014  0.65503005    -0.11230
C253        C  0.09483648  0.23716015  0.84497112    -0.09670
C254        C  0.10398185  0.25568327  0.88321838    -0.11230
C255        C  0.26284269  0.40518962  0.84497118    -0.09670
C256        C  0.24432048  0.39604591  0.88321950    -0.11230
C257        C  0.24432018  0.39603782  0.61678319    -0.09670
C258        C  0.26284252  0.40518613  0.65503119    -0.11230
C259        C  0.10517841  0.39479152  0.88322918    -0.09670
C260        C  0.09605107  0.40392433  0.84497313    -0.11230
C261        C  0.10518761  0.39480055  0.61677782    -0.09670
C262        C  0.09605568  0.40392850  0.65503489    -0.11230
C263        C  0.06255442  0.05274271  0.75000175    -0.09670
C264        C  0.09480594  0.06847872  0.75000186    -0.11230
C265        C  0.22766747  0.13200283  0.61678231    -0.09670
C266        C  0.20914528  0.12285697  0.65503068    -0.11230
C267        C  0.20914543  0.12285216  0.84497056    -0.09670
C268        C  0.22766763  0.13199323  0.88321851    -0.11230
C269        C  0.43152468  0.40520599  0.75000267    -0.09670
C270        C  0.44726074  0.43745641  0.75000249    -0.11230
C271        C  0.36801412  0.27234706  0.88321867    -0.09670
C272        C  0.37715836  0.29087020  0.84497197    -0.11230
C273        C  0.37716163  0.29087011  0.65503101    -0.09670
C274        C  0.36802200  0.27234714  0.61678376    -0.11230
C275        C  0.44825219  0.05175722  0.74999757    -0.09670
C276        C  0.43234415  0.06766506  0.74999664    -0.11230
C277        C  0.36679148  0.13322100  0.61677281    -0.09670
C278        C  0.37592258  0.12409193  0.65502888    -0.11230
C279        C  0.37592684  0.12409646  0.84496729    -0.09670
C280        C  0.36680063  0.13323015  0.88322438    -0.11230
C281        C  0.41336366  0.58664666  0.24999688     0.06730
C282        C  0.40411676  0.59589630  0.29704930    -0.09420
C283        C  0.38562143  0.61439500  0.29702120     0.04230
C284        C  0.37641110  0.62360512  0.24999810    -0.07940
C285        C  0.38562020  0.61439354  0.20297427     0.06730
C286        C  0.40411573  0.59589495  0.20294497    -0.07360
H287        H  0.41127162  0.58874204  0.33344519     0.12320
H288        H  0.36208622  0.63793272  0.24999867     0.09850
H289        H  0.41126960  0.58873941  0.16654864     0.09700
C290        C  0.41321079  0.86674105  0.25000234     0.06730
C291        C  0.40435977  0.84800229  0.20294903    -0.09420
C292        C  0.38664230  0.81053316  0.20297629     0.04230
C293        C  0.37782666  0.79188012  0.25000149    -0.07940
C294        C  0.38664156  0.81053327  0.29702715     0.06730
C295        C  0.40435918  0.84800243  0.29705525    -0.07360
H296        H  0.41120406  0.86249112  0.16655176     0.12320
H297        H  0.36405079  0.76285965  0.25000113     0.09850
H298        H  0.41120278  0.86249137  0.33345285     0.09700
O299        O  0.26275028  0.67493153  0.05579351    -0.81740
O300        O  0.32513630  0.73733178  0.05570121    -0.78790
C301        C  0.35579988  0.74811930  0.07365995     1.01720
O302        O  0.37576814  0.73776072  0.05581983    -0.78820
O303        O  0.37520398  0.67591445  0.05570625    -0.81470
C304        C  0.35484299  0.64516133  0.07364814     1.06240
O305        O  0.32405331  0.62483260  0.05579828    -0.74230
O306        O  0.26218725  0.62423431  0.05572527    -0.74420
C307        C  0.25189543  0.64423332  0.07365850     1.06200
O308        O  0.26268450  0.67488007  0.44429704    -0.81740
O309        O  0.32508539  0.73726529  0.44421067    -0.78800
C310        C  0.35578437  0.74811898  0.42634169     1.01740
O311        O  0.37578429  0.73782658  0.44427108    -0.78830
O312        O  0.37518969  0.67596484  0.44420335    -0.81440
C313        C  0.35485943  0.64517759  0.42635013     1.06210
O314        O  0.32410386  0.62481807  0.44428943    -0.74260
O315        O  0.26225288  0.62424944  0.44418536    -0.74410
C316        C  0.25189538  0.64421671  0.42634218     1.06170
Cr317      Cr  0.29670130  0.70331312  0.00000056     1.93740
Cr318      Cr  0.36983273  0.70400063  0.50000013     1.93210
Cr319      Cr  0.29601757  0.63018727  0.49999965     1.39100
O320        O  0.32085180  0.67916574  0.50000012    -1.19450
C321        C  0.13327205  0.58679482  0.25000152     0.06730
C322        C  0.15201133  0.59564741  0.29705423    -0.09420
C323        C  0.18948233  0.61336920  0.29702589     0.04230
C324        C  0.20813672  0.62218739  0.25000058    -0.07940
C325        C  0.18948226  0.61337077  0.20297579     0.06730
C326        C  0.15201128  0.59564882  0.20294838    -0.07360
H327        H  0.13752150  0.58880151  0.33345178     0.12320
H328        H  0.23715891  0.63596691  0.25000017     0.09850
H329        H  0.13752145  0.58880424  0.16655118     0.09700
O330        O  0.14690706  0.79076485  0.44421478    -0.81740
O331        O  0.20930391  0.85315502  0.44429382    -0.78790
C332        C  0.22009256  0.88381918  0.42634342     1.01720
O333        O  0.20973444  0.90378513  0.44419118    -0.78820
O334        O  0.14787908  0.90320758  0.44428893    -0.81470
C335        C  0.11712256  0.88284694  0.42635386     1.06240
O336        O  0.09679346  0.85206072  0.44421057    -0.74230
O337        O  0.09620832  0.79020396  0.44426803    -0.74420
C338        C  0.11620918  0.77991133  0.42634200     1.06200
O339        O  0.14686107  0.79070605  0.05570744    -0.81740
O340        O  0.20924443  0.85310951  0.05578903    -0.78800
C341        C  0.22009216  0.88380527  0.07365969     1.01740
O342        O  0.20979319  0.90379952  0.05573235    -0.78830
O343        O  0.14792404  0.90319483  0.05579619    -0.81440
C344        C  0.11713712  0.88286157  0.07365198     1.06210
O345        O  0.09678054  0.85210575  0.05571513    -0.74260
O346        O  0.09622179  0.79026243  0.05581469    -0.74410
C347        C  0.11619431  0.77991117  0.07366024     1.06170
Cr348      Cr  0.17529092  0.82472181  0.00000131     1.93740
Cr349      Cr  0.17596545  0.89784307  0.00000213     1.93210
Cr350      Cr  0.10215488  0.82402531  0.00000207     1.39100
O351        O  0.15113584  0.84886464  0.00000182    -1.19490
C352        C  0.05861856  0.94137813  0.25000506     0.06730
C353        C  0.06786521  0.93212816  0.20295269    -0.09420
C354        C  0.08635797  0.91362689  0.20298089     0.04230
C355        C  0.09556556  0.90441407  0.25000400    -0.07940
C356        C  0.08635658  0.91362583  0.29702775     0.06730
C357        C  0.06786392  0.93212729  0.29705700    -0.07360
H358        H  0.06071279  0.93928481  0.16655676     0.12320
H359        H  0.10988871  0.89008473  0.25000349     0.09850
H360        H  0.06071028  0.93928308  0.33345331     0.09700
C361        C  0.33871571  0.94124436  0.25000050     0.06730
C362        C  0.31997656  0.93239253  0.20294774    -0.09420
C363        C  0.28250573  0.91467366  0.20297594     0.04230
C364        C  0.26385142  0.90585848  0.25000120    -0.07940
C365        C  0.28250576  0.91467439  0.29702609     0.06730
C366        C  0.31997657  0.93239313  0.29705360    -0.07360
H367        H  0.33446630  0.93923545  0.16655024     0.12320
H368        H  0.23482931  0.89208059  0.25000150     0.09850
H369        H  0.33446631  0.93923671  0.33345084     0.09700
C370        C  0.05877728  0.66128896  0.24999941     0.06730
C371        C  0.06763043  0.68002772  0.29705281    -0.09420
C372        C  0.08535072  0.71749699  0.29702574     0.04230
C373        C  0.09416640  0.73615014  0.25000060    -0.07940
C374        C  0.08534931  0.71749699  0.20297483     0.06730
C375        C  0.06762917  0.68002768  0.20294657    -0.07360
H376        H  0.06078642  0.66553882  0.33345001     0.12320
H377        H  0.10794441  0.76517071  0.25000111     0.09850
H378        H  0.06078398  0.66553873  0.16654892     0.09700
C379        C  0.46739140  0.53261804  0.24999923     0.05890
C380        C  0.44824484  0.99487651  0.25000033     0.05890
C381        C  0.46685260  0.97626734  0.25000183     0.05890
C382        C  0.00459594  0.99541199  0.25000245     0.05890
C383        C  0.02374249  0.53315359  0.25000138     0.05890
C384        C  0.00513463  0.55176268  0.24999983     0.05890
C385        C  0.02472625  0.59057359  0.24999914    -0.09670
C386        C  0.04046234  0.62282399  0.24999896    -0.11230
C387        C  0.40943295  0.97528803  0.25000015    -0.09670
C388        C  0.37718156  0.95955537  0.25000020    -0.11230
C389        C  0.03964119  0.96036289  0.25000521    -0.09670
C390        C  0.02373493  0.97627256  0.25000419    -0.11230
C391        C  0.10397255  0.75568324  0.11678339    -0.09670
C392        C  0.09483183  0.73716014  0.15503005    -0.11230
C393        C  0.09483623  0.73716014  0.34497111    -0.09670
C394        C  0.10398131  0.75568324  0.38321838    -0.11230
C395        C  0.26284269  0.90518934  0.34497118    -0.09670
C396        C  0.24432047  0.89604534  0.38321950    -0.11230
C397        C  0.24432018  0.89603809  0.11678320    -0.09670
C398        C  0.26284252  0.90518625  0.15503120    -0.11230
C399        C  0.10517896  0.89479207  0.38322917    -0.09670
C400        C  0.09605133  0.90392459  0.34497312    -0.11230
C401        C  0.10518734  0.89480028  0.11677781    -0.09670
C402        C  0.09605555  0.90392837  0.15503489    -0.11230
C403        C  0.06255441  0.55274270  0.25000175    -0.09670
C404        C  0.09480593  0.56847870  0.25000186    -0.11230
C405        C  0.22766746  0.63200311  0.11678230    -0.09670
C406        C  0.20914528  0.62285710  0.15503067    -0.11230
C407        C  0.20914543  0.62285222  0.34497056    -0.09670
C408        C  0.22766763  0.63199336  0.38321850    -0.11230
C409        C  0.43152467  0.90520599  0.25000267    -0.09670
C410        C  0.44726074  0.93745641  0.25000249    -0.11230
C411        C  0.36801426  0.77234706  0.38321867    -0.09670
C412        C  0.37715843  0.79087020  0.34497197    -0.11230
C413        C  0.37716175  0.79087012  0.15503100    -0.09670
C414        C  0.36802226  0.77234715  0.11678376    -0.11230
C415        C  0.44825220  0.55175723  0.24999756    -0.09670
C416        C  0.43234416  0.56766508  0.24999663    -0.11230
C417        C  0.36679120  0.63322074  0.11677282    -0.09670
C418        C  0.37592245  0.62409181  0.15502888    -0.11230
C419        C  0.37592677  0.62409640  0.34496730    -0.09670
C420        C  0.36680048  0.63323001  0.38322438    -0.11230
C421        C  0.41336363  0.58664663  0.74999688     0.06730
C422        C  0.40411675  0.59589629  0.79704930    -0.09420
C423        C  0.38562145  0.61439502  0.79702121     0.04230
C424        C  0.37641112  0.62360515  0.74999810    -0.07940
C425        C  0.38562022  0.61439356  0.70297428     0.06730
C426        C  0.40411572  0.59589494  0.70294497    -0.07360
H427        H  0.41127163  0.58874205  0.83344519     0.12320
H428        H  0.36208630  0.63793280  0.74999867     0.09850
H429        H  0.41126960  0.58873941  0.66654864     0.09700
C430        C  0.41321081  0.86674106  0.75000234     0.06730
C431        C  0.40435978  0.84800230  0.70294903    -0.09420
C432        C  0.38664227  0.81053316  0.70297629     0.04230
C433        C  0.37782663  0.79188012  0.75000149    -0.07940
C434        C  0.38664154  0.81053327  0.79702715     0.06730
C435        C  0.40435919  0.84800244  0.79705525    -0.07360
H436        H  0.41120405  0.86249113  0.66655176     0.12320
H437        H  0.36405071  0.76285966  0.75000113     0.09850
H438        H  0.41120278  0.86249138  0.83345285     0.09700
O439        O  0.26274773  0.67492957  0.55579007    -0.81740
O440        O  0.32513433  0.73732924  0.55570466    -0.78790
C441        C  0.35579926  0.74811929  0.57365996     1.01720
O442        O  0.37576874  0.73776324  0.55581640    -0.78820
O443        O  0.37520342  0.67591638  0.55570969    -0.81470
C444        C  0.35484361  0.64516195  0.57364815     1.06240
O445        O  0.32405524  0.62483204  0.55579485    -0.74230
O446        O  0.26218976  0.62423490  0.55572871    -0.74420
C447        C  0.25189541  0.64423269  0.57365849     1.06200
O448        O  0.26268196  0.67487810  0.94430049    -0.81740
O449        O  0.32508343  0.73726275  0.94420723    -0.78800
C450        C  0.35578375  0.74811897  0.92634168     1.01740
O451        O  0.37578488  0.73782910  0.94427451    -0.78830
O452        O  0.37518913  0.67596677  0.94419992    -0.81440
C453        C  0.35486005  0.64517822  0.92635013     1.06210
O454        O  0.32410580  0.62481752  0.94429286    -0.74260
O455        O  0.26225540  0.62425005  0.94418192    -0.74410
C456        C  0.25189538  0.64421610  0.92634218     1.06170
Cr457      Cr  0.29670129  0.70331312  0.50000057     1.93740
Cr458      Cr  0.36983273  0.70400063  0.00000013     1.93210
Cr459      Cr  0.29601758  0.63018727  0.99999965     1.39100
O460        O  0.32085180  0.67916574  0.00000012    -1.19450
C461        C  0.13327205  0.58679484  0.75000153     0.06730
C462        C  0.15201133  0.59564741  0.79705423    -0.09420
C463        C  0.18948234  0.61336917  0.79702590     0.04230
C464        C  0.20813672  0.62218736  0.75000058    -0.07940
C465        C  0.18948226  0.61337074  0.70297580     0.06730
C466        C  0.15201128  0.59564882  0.70294839    -0.07360
H467        H  0.13752150  0.58880150  0.83345179     0.12320
H468        H  0.23715891  0.63596682  0.75000018     0.09850
H469        H  0.13752145  0.58880423  0.66655118     0.09700
O470        O  0.14690810  0.79076621  0.94421293    -0.81740
O471        O  0.20930526  0.85315608  0.94429565    -0.78790
C472        C  0.22009257  0.88381951  0.92634342     1.01720
O473        O  0.20973309  0.90378481  0.94418935    -0.78820
O474        O  0.14787804  0.90320787  0.94429076    -0.81470
C475        C  0.11712223  0.88284661  0.92635386     1.06240
O476        O  0.09679376  0.85205969  0.94420875    -0.74230
O477        O  0.09620800  0.79020262  0.94426987    -0.74420
C478        C  0.11620950  0.77991134  0.92634199     1.06200
O479        O  0.14686213  0.79070740  0.55570928    -0.81740
O480        O  0.20924579  0.85311056  0.55578720    -0.78800
C481        C  0.22009217  0.88380560  0.57365969     1.01740
O482        O  0.20979185  0.90379921  0.55573418    -0.78830
O483        O  0.14792301  0.90319513  0.55579436    -0.81440
C484        C  0.11713679  0.88286123  0.57365198     1.06210
O485        O  0.09678084  0.85210472  0.55571696    -0.74260
O486        O  0.09622147  0.79026108  0.55581286    -0.74410
C487        C  0.11619464  0.77991118  0.57366024     1.06170
Cr488      Cr  0.17529093  0.82472181  0.50000131     1.93740
Cr489      Cr  0.17596546  0.89784307  0.50000213     1.93210
Cr490      Cr  0.10215489  0.82402530  0.50000207     1.39100
O491        O  0.15113585  0.84886464  0.50000183    -1.19490
C492        C  0.05861857  0.94137815  0.75000505     0.06730
C493        C  0.06786522  0.93212816  0.70295269    -0.09420
C494        C  0.08635795  0.91362688  0.70298089     0.04230
C495        C  0.09556554  0.90441405  0.75000400    -0.07940
C496        C  0.08635657  0.91362582  0.79702775     0.06730
C497        C  0.06786392  0.93212729  0.79705700    -0.07360
H498        H  0.06071279  0.93928480  0.66655676     0.12320
H499        H  0.10988866  0.89008468  0.75000349     0.09850
H500        H  0.06071028  0.93928307  0.83345331     0.09700
C501        C  0.33871571  0.94124436  0.75000051     0.06730
C502        C  0.31997657  0.93239253  0.70294775    -0.09420
C503        C  0.28250573  0.91467369  0.70297594     0.04230
C504        C  0.26385142  0.90585850  0.75000121    -0.07940
C505        C  0.28250576  0.91467441  0.79702609     0.06730
C506        C  0.31997657  0.93239314  0.79705361    -0.07360
H507        H  0.33446630  0.93923546  0.66655024     0.12320
H508        H  0.23482932  0.89208064  0.75000150     0.09850
H509        H  0.33446631  0.93923672  0.83345085     0.09700
C510        C  0.05877727  0.66128895  0.74999941     0.06730
C511        C  0.06763042  0.68002772  0.79705281    -0.09420
C512        C  0.08535073  0.71749699  0.79702574     0.04230
C513        C  0.09416641  0.73615014  0.75000061    -0.07940
C514        C  0.08534932  0.71749699  0.70297483     0.06730
C515        C  0.06762916  0.68002768  0.70294657    -0.07360
H516        H  0.06078642  0.66553881  0.83345001     0.12320
H517        H  0.10794445  0.76517071  0.75000111     0.09850
H518        H  0.06078399  0.66553872  0.66654892     0.09700
C519        C  0.46739140  0.53261803  0.74999923     0.05890
C520        C  0.44824484  0.99487651  0.75000035     0.05890
C521        C  0.46685261  0.97626734  0.75000184     0.05890
C522        C  0.00459595  0.99541200  0.75000245     0.05890
C523        C  0.02374249  0.53315359  0.75000138     0.05890
C524        C  0.00513463  0.55176267  0.74999983     0.05890
C525        C  0.02472624  0.59057359  0.74999914    -0.09670
C526        C  0.04046233  0.62282399  0.74999896    -0.11230
C527        C  0.40943295  0.97528803  0.75000016    -0.09670
C528        C  0.37718156  0.95955537  0.75000021    -0.11230
C529        C  0.03964120  0.96036291  0.75000520    -0.09670
C530        C  0.02373494  0.97627257  0.75000418    -0.11230
C531        C  0.10397273  0.75568324  0.61678339    -0.09670
C532        C  0.09483190  0.73716013  0.65503005    -0.11230
C533        C  0.09483629  0.73716014  0.84497111    -0.09670
C534        C  0.10398148  0.75568324  0.88321838    -0.11230
C535        C  0.26284269  0.90518942  0.84497118    -0.09670
C536        C  0.24432047  0.89604553  0.88321950    -0.11230
C537        C  0.24432019  0.89603828  0.61678320    -0.09670
C538        C  0.26284253  0.90518634  0.65503120    -0.11230
C539        C  0.10517877  0.89479188  0.88322917    -0.09670
C540        C  0.09605125  0.90392451  0.84497312    -0.11230
C541        C  0.10518715  0.89480010  0.61677781    -0.09670
C542        C  0.09605548  0.90392829  0.65503489    -0.11230
C543        C  0.06255441  0.55274270  0.75000176    -0.09670
C544        C  0.09480593  0.56847871  0.75000186    -0.11230
C545        C  0.22766746  0.63200276  0.61678231    -0.09670
C546        C  0.20914527  0.62285695  0.65503068    -0.11230
C547        C  0.20914543  0.62285207  0.84497056    -0.09670
C548        C  0.22766763  0.63199302  0.88321850    -0.11230
C549        C  0.43152469  0.90520600  0.75000267    -0.09670
C550        C  0.44726075  0.93745641  0.75000249    -0.11230
C551        C  0.36801392  0.77234706  0.88321867    -0.09670
C552        C  0.37715828  0.79087020  0.84497197    -0.11230
C553        C  0.37716160  0.79087012  0.65503101    -0.09670
C554        C  0.36802192  0.77234714  0.61678376    -0.11230
C555        C  0.44825219  0.55175722  0.74999756    -0.09670
C556        C  0.43234414  0.56766506  0.74999663    -0.11230
C557        C  0.36679154  0.63322107  0.61677282    -0.09670
C558        C  0.37592259  0.62409195  0.65502889    -0.11230
C559        C  0.37592692  0.62409654  0.84496730    -0.09670
C560        C  0.36680083  0.63323036  0.88322438    -0.11230
C561        C  0.91336365  0.08664665  0.24999688     0.06730
C562        C  0.90411674  0.09589627  0.29704930    -0.09420
C563        C  0.88562142  0.11439498  0.29702121     0.04230
C564        C  0.87641111  0.12360513  0.24999810    -0.07940
C565        C  0.88562024  0.11439357  0.20297427     0.06730
C566        C  0.90411575  0.09589497  0.20294497    -0.07360
H567        H  0.91127158  0.08874200  0.33344519     0.12320
H568        H  0.86208625  0.13793275  0.24999867     0.09850
H569        H  0.91126964  0.08873945  0.16654864     0.09700
C570        C  0.91321080  0.36674105  0.25000235     0.06730
C571        C  0.90435976  0.34800229  0.20294903    -0.09420
C572        C  0.88664227  0.31053316  0.20297629     0.04230
C573        C  0.87782666  0.29188012  0.25000149    -0.07940
C574        C  0.88664158  0.31053327  0.29702716     0.06730
C575        C  0.90435920  0.34800243  0.29705526    -0.07360
H576        H  0.91120402  0.36249112  0.16655176     0.12320
H577        H  0.86405077  0.26285965  0.25000113     0.09850
H578        H  0.91120282  0.36249137  0.33345285     0.09700
O579        O  0.76274805  0.17492980  0.05579049    -0.81740
O580        O  0.82513457  0.23732954  0.05570425    -0.78790
C581        C  0.85579934  0.24811929  0.07365996     1.01720
O582        O  0.87576868  0.23776293  0.05581681    -0.78820
O583        O  0.87520349  0.17591614  0.05570927    -0.81470
C584        C  0.85484354  0.14516187  0.07364814     1.06240
O585        O  0.82405501  0.12483210  0.05579527    -0.74230
O586        O  0.76218946  0.12423482  0.05572829    -0.74420
C587        C  0.75189542  0.14423276  0.07365850     1.06200
O588        O  0.76268489  0.17488036  0.44429651    -0.81740
O589        O  0.82508569  0.23726568  0.44421120    -0.78800
C590        C  0.85578446  0.24811898  0.42634169     1.01740
O591        O  0.87578419  0.23782619  0.44427055    -0.78830
O592        O  0.87518977  0.17596454  0.44420388    -0.81440
C593        C  0.85485933  0.14517749  0.42635013     1.06210
O594        O  0.82410357  0.12481815  0.44428890    -0.74260
O595        O  0.76225248  0.12424934  0.44418588    -0.74410
C596        C  0.75189538  0.14421680  0.42634217     1.06170
Cr597      Cr  0.79670130  0.20331312  0.00000057     1.93740
Cr598      Cr  0.86983273  0.20400062  0.50000013     1.93210
Cr599      Cr  0.79601757  0.13018726  0.49999965     1.39100
O600        O  0.82085180  0.17916573  0.50000012    -1.19450
C601        C  0.63327205  0.08679482  0.25000151     0.06730
C602        C  0.65201132  0.09564742  0.29705422    -0.09420
C603        C  0.68948233  0.11336920  0.29702589     0.04230
C604        C  0.70813672  0.12218737  0.25000058    -0.07940
C605        C  0.68948225  0.11337073  0.20297579     0.06730
C606        C  0.65201128  0.09564879  0.20294838    -0.07360
H607        H  0.63752149  0.08880155  0.33345178     0.12320
H608        H  0.73715891  0.13596686  0.25000018     0.09850
H609        H  0.63752145  0.08880419  0.16655117     0.09700
O610        O  0.64691039  0.29076917  0.44420893    -0.81740
O611        O  0.70930822  0.35315838  0.44429966    -0.78790
C612        C  0.72009257  0.38382024  0.42634343     1.01720
O613        O  0.70973015  0.40378411  0.44418535    -0.78820
O614        O  0.64787577  0.40320851  0.44429476    -0.81470
C615        C  0.61712150  0.38284588  0.42635386     1.06240
O616        O  0.59679440  0.35205743  0.44420475    -0.74230
O617        O  0.59620731  0.29019968  0.44427387    -0.74420
C618        C  0.61621023  0.27991135  0.42634199     1.06200
O619        O  0.64685845  0.29070266  0.05570282    -0.81740
O620        O  0.70924103  0.35310689  0.05579364    -0.78800
C621        C  0.72009214  0.38380445  0.07365970     1.01740
O622        O  0.70979657  0.40380033  0.05572774    -0.78830
O623        O  0.64792663  0.40319409  0.05580077    -0.81440
C624        C  0.61713796  0.38286241  0.07365198     1.06210
O625        O  0.59677981  0.35210836  0.05571055    -0.74260
O626        O  0.59622261  0.29026582  0.05581929    -0.74410
C627        C  0.61619349  0.27991117  0.07366023     1.06170
Cr628      Cr  0.67529093  0.32472183  0.00000131     1.93740
Cr629      Cr  0.67596546  0.39784308  0.00000212     1.93210
Cr630      Cr  0.60215489  0.32402532  0.00000208     1.39100
O631        O  0.65113585  0.34886465  0.00000183    -1.19490
C632        C  0.55861856  0.44137814  0.25000506     0.06730
C633        C  0.56786528  0.43212823  0.20295270    -0.09420
C634        C  0.58635804  0.41362697  0.20298089     0.04230
C635        C  0.59556556  0.40441406  0.25000400    -0.07940
C636        C  0.58635650  0.41362575  0.29702775     0.06730
C637        C  0.56786385  0.43212722  0.29705700    -0.07360
H638        H  0.56071292  0.43928494  0.16655676     0.12320
H639        H  0.60988869  0.39008472  0.25000349     0.09850
H640        H  0.56071014  0.43928294  0.33345331     0.09700
C641        C  0.83871571  0.44124437  0.25000052     0.06730
C642        C  0.81997656  0.43239248  0.20294776    -0.09420
C643        C  0.78250573  0.41467361  0.20297595     0.04230
C644        C  0.76385142  0.40585850  0.25000121    -0.07940
C645        C  0.78250576  0.41467448  0.29702610     0.06730
C646        C  0.81997657  0.43239320  0.29705362    -0.07360
H647        H  0.83446630  0.43923533  0.16655026     0.12320
H648        H  0.73482931  0.39208062  0.25000150     0.09850
H649        H  0.83446630  0.43923685  0.33345086     0.09700
C650        C  0.55877728  0.16128896  0.24999939     0.06730
C651        C  0.56763049  0.18002772  0.29705279    -0.09420
C652        C  0.58535080  0.21749699  0.29702573     0.04230
C653        C  0.59416641  0.23615014  0.25000060    -0.07940
C654        C  0.58534925  0.21749699  0.20297481     0.06730
C655        C  0.56762911  0.18002769  0.20294655    -0.07360
H656        H  0.56078655  0.16553882  0.33344999     0.12320
H657        H  0.60794443  0.26517072  0.25000111     0.09850
H658        H  0.56078386  0.16553873  0.16654890     0.09700
C659        C  0.96739140  0.03261803  0.24999923     0.05890
C660        C  0.94824484  0.49487651  0.25000035     0.05890
C661        C  0.96685260  0.47626734  0.25000184     0.05890
C662        C  0.50459594  0.49541199  0.25000245     0.05890
C663        C  0.52374249  0.03315359  0.25000137     0.05890
C664        C  0.50513463  0.05176268  0.24999981     0.05890
C665        C  0.52472625  0.09057359  0.24999911    -0.09670
C666        C  0.54046234  0.12282399  0.24999893    -0.11230
C667        C  0.90943295  0.47528803  0.25000017    -0.09670
C668        C  0.87718156  0.45955537  0.25000022    -0.11230
C669        C  0.53964119  0.46036290  0.25000521    -0.09670
C670        C  0.52373493  0.47627256  0.25000419    -0.11230
C671        C  0.60397210  0.25568325  0.11678338    -0.09670
C672        C  0.59483162  0.23716014  0.15503004    -0.11230
C673        C  0.59483650  0.23716014  0.34497111    -0.09670
C674        C  0.60398190  0.25568325  0.38321838    -0.11230
C675        C  0.76284269  0.40518963  0.34497119    -0.09670
C676        C  0.74432047  0.39604594  0.38321951    -0.11230
C677        C  0.74432017  0.39603764  0.11678320    -0.09670
C678        C  0.76284252  0.40518605  0.15503120    -0.11230
C679        C  0.60517835  0.39479146  0.38322918    -0.09670
C680        C  0.59605104  0.40392430  0.34497312    -0.11230
C681        C  0.60518782  0.39480076  0.11677781    -0.09670
C682        C  0.59605579  0.40392861  0.15503489    -0.11230
C683        C  0.56255441  0.05274270  0.25000174    -0.09670
C684        C  0.59480593  0.06847871  0.25000185    -0.11230
C685        C  0.72766746  0.13200280  0.11678231    -0.09670
C686        C  0.70914527  0.12285696  0.15503067    -0.11230
C687        C  0.70914543  0.12285224  0.34497055    -0.09670
C688        C  0.72766763  0.13199341  0.38321850    -0.11230
C689        C  0.93152468  0.40520599  0.25000267    -0.09670
C690        C  0.94726074  0.43745641  0.25000249    -0.11230
C691        C  0.86801431  0.27234706  0.38321867    -0.09670
C692        C  0.87715846  0.29087020  0.34497197    -0.11230
C693        C  0.87716162  0.29087011  0.15503101    -0.09670
C694        C  0.86802197  0.27234714  0.11678376    -0.11230
C695        C  0.94825220  0.05175722  0.24999756    -0.09670
C696        C  0.93234415  0.06766507  0.24999663    -0.11230
C697        C  0.86679150  0.13322103  0.11677282    -0.09670
C698        C  0.87592259  0.12409194  0.15502888    -0.11230
C699        C  0.87592674  0.12409636  0.34496730    -0.09670
C700        C  0.86680043  0.13322995  0.38322438    -0.11230
C701        C  0.91336364  0.08664664  0.74999687     0.06730
C702        C  0.90411673  0.09589626  0.79704930    -0.09420
C703        C  0.88562141  0.11439497  0.79702120     0.04230
C704        C  0.87641111  0.12360513  0.74999810    -0.07940
C705        C  0.88562024  0.11439356  0.70297427     0.06730
C706        C  0.90411574  0.09589496  0.70294496    -0.07360
H707        H  0.91127158  0.08874199  0.83344519     0.12320
H708        H  0.86208626  0.13793276  0.74999866     0.09850
H709        H  0.91126964  0.08873945  0.66654863     0.09700
C710        C  0.91321080  0.36674105  0.75000235     0.06730
C711        C  0.90435974  0.34800229  0.70294903    -0.09420
C712        C  0.88664225  0.31053315  0.70297629     0.04230
C713        C  0.87782664  0.29188012  0.75000149    -0.07940
C714        C  0.88664157  0.31053326  0.79702716     0.06730
C715        C  0.90435920  0.34800243  0.79705526    -0.07360
H716        H  0.91120400  0.36249112  0.66655176     0.12320
H717        H  0.86405074  0.26285965  0.75000113     0.09850
H718        H  0.91120282  0.36249137  0.83345285     0.09700
O719        O  0.76274734  0.17492926  0.55578953    -0.81740
O720        O  0.82513402  0.23732884  0.55570519    -0.78790
C721        C  0.85579916  0.24811928  0.57365996     1.01720
O722        O  0.87576883  0.23776362  0.55581588    -0.78820
O723        O  0.87520333  0.17591668  0.55571022    -0.81470
C724        C  0.85484371  0.14516204  0.57364814     1.06240
O725        O  0.82405554  0.12483194  0.55579432    -0.74230
O726        O  0.76219015  0.12423498  0.55572923    -0.74420
C727        C  0.75189541  0.14423259  0.57365849     1.06200
O728        O  0.76268420  0.17487983  0.94429747    -0.81740
O729        O  0.82508516  0.23726498  0.94421026    -0.78800
C730        C  0.85578430  0.24811898  0.92634169     1.01740
O731        O  0.87578436  0.23782688  0.94427149    -0.78830
O732        O  0.87518962  0.17596507  0.94420293    -0.81440
C733        C  0.85485950  0.14517766  0.92635013     1.06210
O734        O  0.82410410  0.12481799  0.94428985    -0.74260
O735        O  0.76225318  0.12424951  0.94418494    -0.74410
C736        C  0.75189539  0.14421664  0.92634218     1.06170
Cr737      Cr  0.79670129  0.20331311  0.50000056     1.93740
Cr738      Cr  0.86983273  0.20400062  0.00000012     1.93210
Cr739      Cr  0.79601757  0.13018726  0.99999965     1.39100
O740        O  0.82085180  0.17916573  0.00000012    -1.19450
C741        C  0.63327205  0.08679484  0.75000152     0.06730
C742        C  0.65201133  0.09564744  0.79705423    -0.09420
C743        C  0.68948234  0.11336921  0.79702589     0.04230
C744        C  0.70813672  0.12218737  0.75000058    -0.07940
C745        C  0.68948226  0.11337072  0.70297580     0.06730
C746        C  0.65201128  0.09564880  0.70294838    -0.07360
H747        H  0.63752150  0.08880156  0.83345179     0.12320
H748        H  0.73715891  0.13596685  0.75000018     0.09850
H749        H  0.63752145  0.08880419  0.66655118     0.09700
O750        O  0.64691074  0.29076963  0.94420833    -0.81740
O751        O  0.70930866  0.35315873  0.94430026    -0.78790
C752        C  0.72009259  0.38382035  0.92634343     1.01720
O753        O  0.70972972  0.40378402  0.94418475    -0.78820
O754        O  0.64787545  0.40320862  0.94429535    -0.81470
C755        C  0.61712140  0.38284578  0.92635386     1.06240
O756        O  0.59679451  0.35205712  0.94420417    -0.74230
O757        O  0.59620721  0.29019926  0.94427447    -0.74420
C758        C  0.61621034  0.27991137  0.92634199     1.06200
O759        O  0.64685878  0.29070309  0.55570342    -0.81740
O760        O  0.70924147  0.35310723  0.55579304    -0.78800
C761        C  0.72009214  0.38380455  0.57365969     1.01740
O762        O  0.70979612  0.40380021  0.55572834    -0.78830
O763        O  0.64792628  0.40319417  0.55580018    -0.81440
C764        C  0.61713783  0.38286228  0.57365198     1.06210
O765        O  0.59677989  0.35210800  0.55571113    -0.74260
O766        O  0.59622249  0.29026536  0.55581869    -0.74410
C767        C  0.61619359  0.27991116  0.57366023     1.06170
Cr768      Cr  0.67529092  0.32472182  0.50000131     1.93740
Cr769      Cr  0.67596545  0.39784306  0.50000212     1.93210
Cr770      Cr  0.60215488  0.32402530  0.50000207     1.39100
O771        O  0.65113584  0.34886464  0.50000182    -1.19490
C772        C  0.55861856  0.44137813  0.75000506     0.06730
C773        C  0.56786527  0.43212822  0.70295269    -0.09420
C774        C  0.58635802  0.41362694  0.70298089     0.04230
C775        C  0.59556554  0.40441404  0.75000400    -0.07940
C776        C  0.58635649  0.41362574  0.79702775     0.06730
C777        C  0.56786385  0.43212722  0.79705700    -0.07360
H778        H  0.56071290  0.43928492  0.66655676     0.12320
H779        H  0.60988867  0.39008469  0.75000349     0.09850
H780        H  0.56071015  0.43928295  0.83345331     0.09700
C781        C  0.83871571  0.44124436  0.75000051     0.06730
C782        C  0.81997656  0.43239247  0.70294775    -0.09420
C783        C  0.78250572  0.41467361  0.70297594     0.04230
C784        C  0.76385142  0.40585851  0.75000120    -0.07940
C785        C  0.78250576  0.41467449  0.79702609     0.06730
C786        C  0.81997657  0.43239321  0.79705361    -0.07360
H787        H  0.83446629  0.43923533  0.66655025     0.12320
H788        H  0.73482931  0.39208063  0.75000149     0.09850
H789        H  0.83446631  0.43923685  0.83345085     0.09700
C790        C  0.55877727  0.16128896  0.74999941     0.06730
C791        C  0.56763049  0.18002773  0.79705281    -0.09420
C792        C  0.58535080  0.21749700  0.79702574     0.04230
C793        C  0.59416641  0.23615015  0.75000061    -0.07940
C794        C  0.58534925  0.21749699  0.70297483     0.06730
C795        C  0.56762910  0.18002769  0.70294657    -0.07360
H796        H  0.56078655  0.16553883  0.83345001     0.12320
H797        H  0.60794444  0.26517072  0.75000111     0.09850
H798        H  0.56078386  0.16553873  0.66654892     0.09700
C799        C  0.96739140  0.03261803  0.74999923     0.05890
C800        C  0.94824484  0.49487651  0.75000034     0.05890
C801        C  0.96685260  0.47626733  0.75000183     0.05890
C802        C  0.50459594  0.49541199  0.75000245     0.05890
C803        C  0.52374250  0.03315360  0.75000139     0.05890
C804        C  0.50513463  0.05176268  0.74999983     0.05890
C805        C  0.52472625  0.09057359  0.74999914    -0.09670
C806        C  0.54046234  0.12282399  0.74999896    -0.11230
C807        C  0.90943294  0.47528803  0.75000015    -0.09670
C808        C  0.87718155  0.45955537  0.75000021    -0.11230
C809        C  0.53964119  0.46036290  0.75000520    -0.09670
C810        C  0.52373493  0.47627256  0.75000419    -0.11230
C811        C  0.60397215  0.25568324  0.61678338    -0.09670
C812        C  0.59483164  0.23716014  0.65503005    -0.11230
C813        C  0.59483652  0.23716015  0.84497111    -0.09670
C814        C  0.60398196  0.25568327  0.88321838    -0.11230
C815        C  0.76284269  0.40518966  0.84497118    -0.09670
C816        C  0.74432048  0.39604601  0.88321951    -0.11230
C817        C  0.74432017  0.39603769  0.61678320    -0.09670
C818        C  0.76284252  0.40518607  0.65503120    -0.11230
C819        C  0.60517830  0.39479142  0.88322918    -0.09670
C820        C  0.59605102  0.40392428  0.84497312    -0.11230
C821        C  0.60518773  0.39480068  0.61677781    -0.09670
C822        C  0.59605574  0.40392856  0.65503489    -0.11230
C823        C  0.56255441  0.05274271  0.75000176    -0.09670
C824        C  0.59480593  0.06847872  0.75000186    -0.11230
C825        C  0.72766745  0.13200270  0.61678231    -0.09670
C826        C  0.70914527  0.12285691  0.65503068    -0.11230
C827        C  0.70914544  0.12285221  0.84497056    -0.09670
C828        C  0.72766764  0.13199333  0.88321850    -0.11230
C829        C  0.93152468  0.40520599  0.75000267    -0.09670
C830        C  0.94726074  0.43745641  0.75000249    -0.11230
C831        C  0.86801422  0.27234706  0.88321867    -0.09670
C832        C  0.87715842  0.29087020  0.84497197    -0.11230
C833        C  0.87716156  0.29087011  0.65503101    -0.09670
C834        C  0.86802185  0.27234713  0.61678376    -0.11230
C835        C  0.94825219  0.05175722  0.74999756    -0.09670
C836        C  0.93234415  0.06766506  0.74999663    -0.11230
C837        C  0.86679159  0.13322112  0.61677282    -0.09670
C838        C  0.87592262  0.12409198  0.65502888    -0.11230
C839        C  0.87592678  0.12409639  0.84496729    -0.09670
C840        C  0.86680052  0.13323004  0.88322438    -0.11230
C841        C  0.91336366  0.58664665  0.24999688     0.06730
C842        C  0.90411675  0.59589629  0.29704930    -0.09420
C843        C  0.88562143  0.61439499  0.29702120     0.04230
C844        C  0.87641111  0.62360513  0.24999810    -0.07940
C845        C  0.88562022  0.61439355  0.20297427     0.06730
C846        C  0.90411574  0.59589496  0.20294497    -0.07360
H847        H  0.91127161  0.58874202  0.33344519     0.12320
H848        H  0.86208624  0.63793274  0.24999866     0.09850
H849        H  0.91126961  0.58873943  0.16654864     0.09700
C850        C  0.91321079  0.86674106  0.25000234     0.06730
C851        C  0.90435977  0.84800229  0.20294903    -0.09420
C852        C  0.88664229  0.81053316  0.20297629     0.04230
C853        C  0.87782666  0.79188012  0.25000149    -0.07940
C854        C  0.88664157  0.81053327  0.29702715     0.06730
C855        C  0.90435919  0.84800243  0.29705525    -0.07360
H856        H  0.91120405  0.86249112  0.16655176     0.12320
H857        H  0.86405078  0.76285966  0.25000113     0.09850
H858        H  0.91120279  0.86249138  0.33345285     0.09700
O859        O  0.76274943  0.67493088  0.05579235    -0.81740
O860        O  0.82513564  0.73733093  0.05570236    -0.78790
C861        C  0.85579968  0.74811930  0.07365995     1.01720
O862        O  0.87576835  0.73776157  0.05581868    -0.78820
O863        O  0.87520380  0.67591510  0.05570740    -0.81470
C864        C  0.85484321  0.64516154  0.07364814     1.06240
O865        O  0.82405397  0.62483242  0.05579713    -0.74230
O866        O  0.76218810  0.62423451  0.05572642    -0.74420
C867        C  0.75189543  0.64423311  0.07365850     1.06200
O868        O  0.76268441  0.67487999  0.44429717    -0.81740
O869        O  0.82508532  0.73726520  0.44421054    -0.78800
C870        C  0.85578435  0.74811899  0.42634168     1.01740
O871        O  0.87578431  0.73782668  0.44427120    -0.78830
O872        O  0.87518967  0.67596492  0.44420322    -0.81440
C873        C  0.85485946  0.64517761  0.42635013     1.06210
O874        O  0.82410394  0.62481804  0.44428956    -0.74260
O875        O  0.76225297  0.62424946  0.44418523    -0.74410
C876        C  0.75189539  0.64421669  0.42634218     1.06170
Cr877      Cr  0.79670130  0.70331312  0.00000056     1.93740
Cr878      Cr  0.86983273  0.70400063  0.50000012     1.93210
Cr879      Cr  0.79601758  0.63018727  0.49999965     1.39100
O880        O  0.82085180  0.67916574  0.50000012    -1.19450
C881        C  0.63327205  0.58679483  0.25000152     0.06730
C882        C  0.65201133  0.59564741  0.29705423    -0.09420
C883        C  0.68948234  0.61336920  0.29702589     0.04230
C884        C  0.70813672  0.62218738  0.25000058    -0.07940
C885        C  0.68948226  0.61337076  0.20297580     0.06730
C886        C  0.65201129  0.59564881  0.20294838    -0.07360
H887        H  0.63752150  0.58880152  0.33345178     0.12320
H888        H  0.73715892  0.63596689  0.25000018     0.09850
H889        H  0.63752145  0.58880423  0.16655118     0.09700
O890        O  0.64690752  0.79076545  0.44421396    -0.81740
O891        O  0.70930451  0.85315549  0.44429463    -0.78790
C892        C  0.72009257  0.88381932  0.42634342     1.01720
O893        O  0.70973385  0.90378499  0.44419037    -0.78820
O894        O  0.64787862  0.90320772  0.44428975    -0.81470
C895        C  0.61712243  0.88284681  0.42635386     1.06240
O896        O  0.59679360  0.85206027  0.44420976    -0.74230
O897        O  0.59620818  0.79020337  0.44426885    -0.74420
C898        C  0.61620932  0.77991134  0.42634200     1.06200
O899        O  0.64686139  0.79070645  0.05570797    -0.81740
O900        O  0.70924484  0.85310982  0.05578849    -0.78800
C901        C  0.72009217  0.88380537  0.07365969     1.01740
O902        O  0.70979281  0.90379943  0.05573288    -0.78830
O903        O  0.64792375  0.90319492  0.05579565    -0.81440
C904        C  0.61713703  0.88286148  0.07365198     1.06210
O905        O  0.59678064  0.85210546  0.05571567    -0.74260
O906        O  0.59622171  0.79026204  0.05581416    -0.74410
C907        C  0.61619441  0.77991118  0.07366024     1.06170
Cr908      Cr  0.67529093  0.82472182  0.00000131     1.93740
Cr909      Cr  0.67596547  0.89784307  0.00000212     1.93210
Cr910      Cr  0.60215489  0.82402531  0.00000207     1.39100
O911        O  0.65113585  0.84886465  0.00000182    -1.19490
C912        C  0.55861857  0.94137814  0.25000506     0.06730
C913        C  0.56786522  0.93212817  0.20295269    -0.09420
C914        C  0.58635798  0.91362690  0.20298089     0.04230
C915        C  0.59556557  0.90441407  0.25000400    -0.07940
C916        C  0.58635659  0.91362584  0.29702775     0.06730
C917        C  0.56786392  0.93212729  0.29705700    -0.07360
H918        H  0.56071280  0.93928481  0.16655676     0.12320
H919        H  0.60988871  0.89008473  0.25000349     0.09850
H920        H  0.56071028  0.93928308  0.33345331     0.09700
C921        C  0.83871572  0.94124436  0.25000051     0.06730
C922        C  0.81997657  0.93239253  0.20294775    -0.09420
C923        C  0.78250573  0.91467367  0.20297594     0.04230
C924        C  0.76385142  0.90585849  0.25000120    -0.07940
C925        C  0.78250576  0.91467440  0.29702609     0.06730
C926        C  0.81997658  0.93239313  0.29705360    -0.07360
H927        H  0.83446630  0.93923545  0.16655024     0.12320
H928        H  0.73482932  0.89208060  0.25000150     0.09850
H929        H  0.83446631  0.93923672  0.33345084     0.09700
C930        C  0.55877728  0.66128896  0.24999941     0.06730
C931        C  0.56763043  0.68002772  0.29705281    -0.09420
C932        C  0.58535073  0.71749700  0.29702574     0.04230
C933        C  0.59416641  0.73615015  0.25000061    -0.07940
C934        C  0.58534932  0.71749699  0.20297483     0.06730
C935        C  0.56762917  0.68002769  0.20294657    -0.07360
H936        H  0.56078643  0.66553882  0.33345001     0.12320
H937        H  0.60794443  0.76517072  0.25000111     0.09850
H938        H  0.56078399  0.66553873  0.16654892     0.09700
C939        C  0.96739140  0.53261803  0.24999923     0.05890
C940        C  0.94824484  0.99487651  0.25000034     0.05890
C941        C  0.96685260  0.97626734  0.25000183     0.05890
C942        C  0.50459593  0.99541199  0.25000245     0.05890
C943        C  0.52374250  0.53315359  0.25000138     0.05890
C944        C  0.50513463  0.55176268  0.24999982     0.05890
C945        C  0.52472625  0.59057359  0.24999913    -0.09670
C946        C  0.54046234  0.62282399  0.24999896    -0.11230
C947        C  0.90943295  0.97528804  0.25000015    -0.09670
C948        C  0.87718156  0.95955537  0.25000020    -0.11230
C949        C  0.53964119  0.96036290  0.25000520    -0.09670
C950        C  0.52373493  0.97627256  0.25000418    -0.11230
C951        C  0.60397262  0.75568325  0.11678339    -0.09670
C952        C  0.59483186  0.73716014  0.15503005    -0.11230
C953        C  0.59483626  0.73716014  0.34497111    -0.09670
C954        C  0.60398139  0.75568325  0.38321838    -0.11230
C955        C  0.76284269  0.90518937  0.34497118    -0.09670
C956        C  0.74432047  0.89604542  0.38321951    -0.11230
C957        C  0.74432019  0.89603815  0.11678320    -0.09670
C958        C  0.76284253  0.90518628  0.15503120    -0.11230
C959        C  0.60517889  0.89479199  0.38322917    -0.09670
C960        C  0.59605131  0.90392456  0.34497312    -0.11230
C961        C  0.60518730  0.89480024  0.11677781    -0.09670
C962        C  0.59605555  0.90392836  0.15503489    -0.11230
C963        C  0.56255441  0.55274270  0.25000175    -0.09670
C964        C  0.59480593  0.56847871  0.25000186    -0.11230
C965        C  0.72766747  0.63200299  0.11678231    -0.09670
C966        C  0.70914528  0.62285705  0.15503067    -0.11230
C967        C  0.70914543  0.62285221  0.34497056    -0.09670
C968        C  0.72766764  0.63199335  0.38321850    -0.11230
C969        C  0.93152468  0.90520599  0.25000267    -0.09670
C970        C  0.94726074  0.93745641  0.25000249    -0.11230
C971        C  0.86801425  0.77234707  0.38321866    -0.09670
C972        C  0.87715842  0.79087020  0.34497197    -0.11230
C973        C  0.87716170  0.79087012  0.15503100    -0.09670
C974        C  0.86802215  0.77234715  0.11678376    -0.11230
C975        C  0.94825219  0.55175722  0.24999756    -0.09670
C976        C  0.93234415  0.56766507  0.24999663    -0.11230
C977        C  0.86679133  0.63322086  0.11677281    -0.09670
C978        C  0.87592251  0.62409187  0.15502888    -0.11230
C979        C  0.87592678  0.62409640  0.34496729    -0.09670
C980        C  0.86680050  0.63323002  0.38322438    -0.11230
C981        C  0.91336365  0.58664664  0.74999688     0.06730
C982        C  0.90411675  0.59589629  0.79704930    -0.09420
C983        C  0.88562145  0.61439501  0.79702120     0.04230
C984        C  0.87641113  0.62360515  0.74999810    -0.07940
C985        C  0.88562024  0.61439357  0.70297427     0.06730
C986        C  0.90411574  0.59589496  0.70294497    -0.07360
H987        H  0.91127162  0.58874203  0.83344519     0.12320
H988        H  0.86208630  0.63793280  0.74999867     0.09850
H989        H  0.91126962  0.58873943  0.66654864     0.09700
C990        C  0.91321082  0.86674106  0.75000234     0.06730
C991        C  0.90435978  0.84800230  0.70294903    -0.09420
C992        C  0.88664228  0.81053316  0.70297628     0.04230
C993        C  0.87782665  0.79188012  0.75000149    -0.07940
C994        C  0.88664156  0.81053327  0.79702715     0.06730
C995        C  0.90435920  0.84800244  0.79705525    -0.07360
H996        H  0.91120405  0.86249113  0.66655175     0.12320
H997        H  0.86405074  0.76285966  0.75000113     0.09850
H998        H  0.91120280  0.86249138  0.83345285     0.09700
O999        O  0.76274783  0.67492964  0.55579020    -0.81740
O1000       O  0.82513440  0.73732934  0.55570453    -0.78790
C1001       C  0.85579929  0.74811929  0.57365996     1.01720
O1002       O  0.87576872  0.73776315  0.55581653    -0.78820
O1003       O  0.87520345  0.67591631  0.55570955    -0.81470
C1004       C  0.85484360  0.64516193  0.57364814     1.06240
O1005       O  0.82405518  0.62483206  0.55579499    -0.74230
O1006       O  0.76218968  0.62423487  0.55572858    -0.74420
C1007       C  0.75189542  0.64423272  0.57365850     1.06200
O1008       O  0.76268282  0.67487876  0.94429933    -0.81740
O1009       O  0.82508409  0.73726360  0.94420838    -0.78800
C1010       C  0.85578397  0.74811898  0.92634168     1.01740
O1011       O  0.87578469  0.73782826  0.94427336    -0.78830
O1012       O  0.87518932  0.67596613  0.94420107    -0.81440
C1013       C  0.85485985  0.64517801  0.92635013     1.06210
O1014       O  0.82410516  0.62481770  0.94429171    -0.74260
O1015       O  0.76225456  0.62424985  0.94418307    -0.74410
C1016       C  0.75189539  0.64421631  0.92634218     1.06170
Cr1017     Cr  0.79670130  0.70331312  0.50000057     1.93740
Cr1018     Cr  0.86983274  0.70400063  0.00000012     1.93210
Cr1019     Cr  0.79601758  0.63018727  0.99999965     1.39100
O1020       O  0.82085181  0.67916574  0.00000012    -1.19450
C1021       C  0.63327205  0.58679484  0.75000153     0.06730
C1022       C  0.65201133  0.59564742  0.79705424    -0.09420
C1023       C  0.68948234  0.61336918  0.79702590     0.04230
C1024       C  0.70813672  0.62218736  0.75000059    -0.07940
C1025       C  0.68948226  0.61337074  0.70297580     0.06730
C1026       C  0.65201128  0.59564881  0.70294839    -0.07360
H1027       H  0.63752150  0.58880152  0.83345179     0.12320
H1028       H  0.73715891  0.63596684  0.75000018     0.09850
H1029       H  0.63752145  0.58880422  0.66655118     0.09700
O1030       O  0.64690780  0.79076581  0.94421347    -0.81740
O1031       O  0.70930487  0.85315577  0.94429511    -0.78790
C1032       C  0.72009257  0.88381942  0.92634342     1.01720
O1033       O  0.70973350  0.90378491  0.94418988    -0.78820
O1034       O  0.64787835  0.90320779  0.94429022    -0.81470
C1035       C  0.61712234  0.88284671  0.92635386     1.06240
O1036       O  0.59679368  0.85206000  0.94420929    -0.74230
O1037       O  0.59620810  0.79020301  0.94426933    -0.74420
C1038       C  0.61620941  0.77991134  0.92634199     1.06200
O1039       O  0.64686166  0.79070680  0.55570846    -0.81740
O1040       O  0.70924519  0.85311009  0.55578801    -0.78800
C1041       C  0.72009217  0.88380545  0.57365969     1.01740
O1042       O  0.70979246  0.90379935  0.55573336    -0.78830
O1043       O  0.64792348  0.90319500  0.55579518    -0.81440
C1044       C  0.61713694  0.88286139  0.57365198     1.06210
O1045       O  0.59678071  0.85210519  0.55571615    -0.74260
O1046       O  0.59622162  0.79026169  0.55581367    -0.74410
C1047       C  0.61619449  0.77991118  0.57366024     1.06170
Cr1048     Cr  0.67529093  0.82472181  0.50000131     1.93740
Cr1049     Cr  0.67596547  0.89784307  0.50000213     1.93210
Cr1050     Cr  0.60215489  0.82402531  0.50000207     1.39100
O1051       O  0.65113585  0.84886465  0.50000183    -1.19490
C1052       C  0.55861857  0.94137814  0.75000506     0.06730
C1053       C  0.56786522  0.93212817  0.70295269    -0.09420
C1054       C  0.58635797  0.91362689  0.70298089     0.04230
C1055       C  0.59556555  0.90441406  0.75000400    -0.07940
C1056       C  0.58635657  0.91362582  0.79702775     0.06730
C1057       C  0.56786392  0.93212729  0.79705700    -0.07360
H1058       H  0.56071279  0.93928481  0.66655676     0.12320
H1059       H  0.60988869  0.89008471  0.75000349     0.09850
H1060       H  0.56071028  0.93928307  0.83345331     0.09700
C1061       C  0.83871572  0.94124436  0.75000050     0.06730
C1062       C  0.81997657  0.93239253  0.70294774    -0.09420
C1063       C  0.78250574  0.91467367  0.70297594     0.04230
C1064       C  0.76385143  0.90585849  0.75000120    -0.07940
C1065       C  0.78250577  0.91467441  0.79702609     0.06730
C1066       C  0.81997658  0.93239314  0.79705360    -0.07360
H1067       H  0.83446631  0.93923545  0.66655024     0.12320
H1068       H  0.73482932  0.89208062  0.75000150     0.09850
H1069       H  0.83446632  0.93923673  0.83345084     0.09700
C1070       C  0.55877727  0.66128896  0.74999941     0.06730
C1071       C  0.56763043  0.68002772  0.79705281    -0.09420
C1072       C  0.58535073  0.71749699  0.79702574     0.04230
C1073       C  0.59416640  0.73615014  0.75000061    -0.07940
C1074       C  0.58534931  0.71749699  0.70297483     0.06730
C1075       C  0.56762916  0.68002769  0.70294657    -0.07360
H1076       H  0.56078643  0.66553882  0.83345001     0.12320
H1077       H  0.60794443  0.76517072  0.75000111     0.09850
H1078       H  0.56078398  0.66553873  0.66654892     0.09700
C1079       C  0.96739140  0.53261803  0.74999923     0.05890
C1080       C  0.94824485  0.99487651  0.75000034     0.05890
C1081       C  0.96685261  0.97626734  0.75000183     0.05890
C1082       C  0.50459594  0.99541199  0.75000246     0.05890
C1083       C  0.52374250  0.53315359  0.75000138     0.05890
C1084       C  0.50513463  0.55176268  0.74999983     0.05890
C1085       C  0.52472624  0.59057359  0.74999914    -0.09670
C1086       C  0.54046233  0.62282399  0.74999896    -0.11230
C1087       C  0.90943296  0.97528804  0.75000015    -0.09670
C1088       C  0.87718157  0.95955537  0.75000020    -0.11230
C1089       C  0.53964120  0.96036290  0.75000521    -0.09670
C1090       C  0.52373494  0.97627257  0.75000419    -0.11230
C1091       C  0.60397265  0.75568325  0.61678339    -0.09670
C1092       C  0.59483187  0.73716014  0.65503005    -0.11230
C1093       C  0.59483628  0.73716014  0.84497111    -0.09670
C1094       C  0.60398144  0.75568325  0.88321838    -0.11230
C1095       C  0.76284270  0.90518940  0.84497118    -0.09670
C1096       C  0.74432048  0.89604548  0.88321950    -0.11230
C1097       C  0.74432019  0.89603820  0.61678320    -0.09670
C1098       C  0.76284254  0.90518630  0.65503120    -0.11230
C1099       C  0.60517883  0.89479194  0.88322917    -0.09670
C1100       C  0.59605128  0.90392453  0.84497312    -0.11230
C1101       C  0.60518724  0.89480018  0.61677782    -0.09670
C1102       C  0.59605552  0.90392833  0.65503489    -0.11230
C1103       C  0.56255441  0.55274271  0.75000176    -0.09670
C1104       C  0.59480593  0.56847872  0.75000187    -0.11230
C1105       C  0.72766746  0.63200278  0.61678231    -0.09670
C1106       C  0.70914527  0.62285695  0.65503068    -0.11230
C1107       C  0.70914543  0.62285212  0.84497056    -0.09670
C1108       C  0.72766764  0.63199314  0.88321851    -0.11230
C1109       C  0.93152470  0.90520600  0.75000266    -0.09670
C1110       C  0.94726076  0.93745642  0.75000248    -0.11230
C1111       C  0.86801404  0.77234706  0.88321866    -0.09670
C1112       C  0.87715834  0.79087020  0.84497197    -0.11230
C1113       C  0.87716161  0.79087012  0.65503100    -0.09670
C1114       C  0.86802194  0.77234714  0.61678376    -0.11230
C1115       C  0.94825219  0.55175721  0.74999756    -0.09670
C1116       C  0.93234415  0.56766506  0.74999663    -0.11230
C1117       C  0.86679154  0.63322107  0.61677282    -0.09670
C1118       C  0.87592260  0.62409196  0.65502888    -0.11230
C1119       C  0.87592688  0.62409650  0.84496730    -0.09670
C1120       C  0.86680072  0.63323024  0.88322438    -0.11230
loop_ 
_geom_bond_atom_site_label_1 
_geom_bond_atom_site_label_2 
_geom_bond_distance 
_geom_bond_site_symmetry_2 
_ccdc_geom_bond_type 
C1            C2   1.402       .  A
C1            C6   1.402       .  A
C1          C136   1.437       .  S
C2            C3   1.401       .  A
C2            H7   1.085       .  S
C3            C4   1.400       .  A
C3          C139   1.439       .  S
C4            C5   1.400       .  A
C4            H8   1.085       .  S
C5            C6   1.401       .  A
C5          C138   1.439       .  S
C6            H9   1.085       .  S
C10          C11   1.402       .  A
C10          C15   1.402       .  A
C10         C129   1.438       .  S
C11          C12   1.401       .  A
C11          H16   1.085       .  S
C12          C13   1.400       .  A
C12         C133   1.439       .  S
C13          C14   1.400       .  A
C13          H17   1.085       .  S
C14          C15   1.401       .  A
C14         C132   1.439       .  S
C15          H18   1.085       .  S
O19         Cr37   1.977       .  S
O19          C27   1.254       .  A
O20         Cr37   1.977       .  S
O20          C21   1.254       .  A
C21         C134   1.435       .  S
C21          O22   1.254       .  A
O22        Cr178   1.978       .  S
O23        Cr178   1.977       .  S
O23          C24   1.254       .  A
C24         C137   1.434       .  S
C24          O25   1.254       .  A
O25        Cr179   1.977   1_554  S
O26        Cr179   1.978   1_554  S
O26          C27   1.254       .  A
C27         C125   1.435       .  S
O28        Cr177   1.977       .  S
O28          C36   1.254       .  A
O29        Cr177   1.977       .  S
O29          C30   1.254       .  A
C30         C131   1.435       .  S
C30          O31   1.254       .  A
O31         Cr38   1.978       .  S
O32         Cr38   1.977       .  S
O32          C33   1.254       .  A
C33         C140   1.434       .  S
C33          O34   1.254       .  A
O34         Cr39   1.977       .  S
O35         Cr39   1.978       .  S
O35          C36   1.254       .  A
C36         C128   1.435       .  S
Cr37        O168   1.977   1_554  S
Cr37        O169   1.977   1_554  S
Cr37        O180   1.829       .  S
Cr38        O162   1.978       .  S
Cr38        O163   1.977       .  S
Cr38         O40   1.829       .  S
Cr39        O165   1.977       .  S
Cr39        O166   1.978       .  S
Cr39         O40   1.829       .  S
O40        Cr177   1.829       .  S
C41          C42   1.402       .  A
C41          C46   1.402       .  A
C41         C124   1.438       .  S
C42          C43   1.401       .  A
C42          H47   1.085       .  S
C43          C44   1.400       .  A
C43         C127   1.439       .  S
C44          C45   1.400       .  A
C44          H48   1.085       .  S
C45          C46   1.401       .  A
C45         C126   1.439       .  S
C46          H49   1.085       .  S
O50        Cr208   1.977       .  S
O50          C58   1.254       .  A
O51        Cr208   1.977       .  S
O51          C52   1.254       .  A
C52         C116   1.435       .  S
C52          O53   1.254       .  A
O53        Cr209   1.978       .  S
O54        Cr209   1.977       .  S
O54          C55   1.254       .  A
C55         C119   1.434       .  S
C55          O56   1.254       .  A
O56        Cr210   1.977       .  S
O57        Cr210   1.978       .  S
O57          C58   1.254       .  A
C58         C114   1.435       .  S
O59         Cr68   1.977       .  S
O59          C67   1.254       .  A
O60         Cr68   1.977       .  S
O60          C61   1.254       .  A
C61         C117   1.435       .  S
C61          O62   1.254       .  A
O62         Cr69   1.978       .  S
O63         Cr69   1.977       .  S
O63          C64   1.254       .  A
C64         C121   1.434       .  S
C64          O65   1.254       .  A
O65         Cr70   1.977       .  S
O66         Cr70   1.978       .  S
O66          C67   1.254       .  A
C67         C111   1.435       .  S
Cr68        O190   1.977   1_554  S
Cr68        O191   1.977   1_554  S
Cr68         O71   1.829       .  S
Cr69        O193   1.978   1_554  S
Cr69        O194   1.977   1_554  S
Cr69         O71   1.829       .  S
Cr70        O196   1.977   1_554  S
Cr70        O197   1.978   1_554  S
Cr70         O71   1.829       .  S
C72          C73   1.402       .  A
C72          C77   1.402       .  A
C72         C109   1.437       .  S
C73          C74   1.401       .  A
C73          H78   1.085       .  S
C74          C75   1.400       .  A
C74         C122   1.439       .  S
C75          C76   1.400       .  A
C75          H79   1.085       .  S
C76          C77   1.401       .  A
C76         C120   1.439       .  S
C77          H80   1.085       .  S
C81          C82   1.402       .  A
C81          C86   1.402       .  A
C81         C108   1.438       .  S
C82          C83   1.401       .  A
C82          H87   1.085       .  S
C83          C84   1.400       .  A
C83         C118   1.439       .  S
C84          C85   1.400       .  A
C84          H88   1.085       .  S
C85          C86   1.401       .  A
C85         C115   1.439       .  S
C86          H89   1.085       .  S
C90          C91   1.402       .  A
C90          C95   1.402       .  A
C90         C106   1.438       .  S
C91          C92   1.401       .  A
C91          H96   1.085       .  S
C92          C93   1.400       .  A
C92         C113   1.439       .  S
C93          C94   1.400       .  A
C93          H97   1.085       .  S
C94          C95   1.401       .  A
C94         C112   1.439       .  S
C95          H98   1.085       .  S
C99         C380   1.409   1_545  A
C99         C664   1.409       .  A
C99         C135   1.449       .  S
C100        C101   1.409       .  A
C100        C379   1.409       .  A
C100        C107   1.449       .  S
C101        C662   1.409       .  A
C101        C130   1.449       .  S
C102        C661   1.409   1_455  A
C102        C383   1.409       .  A
C102        C110   1.449       .  S
C103        C104   1.409       .  A
C103        C382   1.409   1_545  A
C103        C123   1.449       .  S
C104        C659   1.409   1_455  A
C104        C105   1.449       .  S
C105        C106   1.205       .  T
C107        C108   1.205       .  T
C109        C110   1.205       .  T
C111        C112   1.206       .  T
C113        C114   1.206       .  T
C115        C116   1.206       .  T
C117        C118   1.206       .  T
C119        C120   1.206       .  T
C121        C122   1.206       .  T
C123        C124   1.205       .  T
C125        C126   1.206       .  T
C127        C128   1.206       .  T
C129        C130   1.205       .  T
C131        C132   1.206       .  T
C133        C134   1.206       .  T
C135        C136   1.205       .  T
C137        C138   1.206       .  T
C139        C140   1.206       .  T
C141        C142   1.402       .  A
C141        C146   1.402       .  A
C141        C276   1.437       .  S
C142        C143   1.401       .  A
C142        H147   1.085       .  S
C143        C144   1.400       .  A
C143        C279   1.439       .  S
C144        C145   1.400       .  A
C144        H148   1.085       .  S
C145        C146   1.401       .  A
C145        C278   1.439       .  S
C146        H149   1.085       .  S
C150        C151   1.402       .  A
C150        C155   1.402       .  A
C150        C269   1.438       .  S
C151        C152   1.401       .  A
C151        H156   1.085       .  S
C152        C153   1.400       .  A
C152        C273   1.439       .  S
C153        C154   1.400       .  A
C153        H157   1.085       .  S
C154        C155   1.401       .  A
C154        C272   1.439       .  S
C155        H158   1.085       .  S
O159       Cr177   1.977       .  S
O159        C167   1.254       .  A
O160       Cr177   1.977       .  S
O160        C161   1.254       .  A
C161        C274   1.435       .  S
C161        O162   1.254       .  A
O163        C164   1.254       .  A
C164        C277   1.434       .  S
C164        O165   1.254       .  A
O166        C167   1.254       .  A
C167        C265   1.435       .  S
O168        C176   1.254       .  A
O169        C170   1.254       .  A
C170        C271   1.435       .  S
C170        O171   1.254       .  A
O171       Cr178   1.978   1_556  S
O172       Cr178   1.977   1_556  S
O172        C173   1.254       .  A
C173        C280   1.434       .  S
C173        O174   1.254       .  A
O174       Cr179   1.977       .  S
O175       Cr179   1.978       .  S
O175        C176   1.254       .  A
C176        C268   1.435       .  S
Cr178       O180   1.829       .  S
Cr179       O180   1.829   1_556  S
C181        C182   1.402       .  A
C181        C186   1.402       .  A
C181        C264   1.438       .  S
C182        C183   1.401       .  A
C182        H187   1.085       .  S
C183        C184   1.400       .  A
C183        C267   1.439       .  S
C184        C185   1.400       .  A
C184        H188   1.085       .  S
C185        C186   1.401       .  A
C185        C266   1.439       .  S
C186        H189   1.085       .  S
O190        C198   1.254       .  A
O191        C192   1.254       .  A
C192        C256   1.435       .  S
C192        O193   1.254       .  A
O194        C195   1.254       .  A
C195        C259   1.434       .  S
C195        O196   1.254       .  A
O197        C198   1.254       .  A
C198        C254   1.435       .  S
O199       Cr208   1.977       .  S
O199        C207   1.254       .  A
O200       Cr208   1.977       .  S
O200        C201   1.254       .  A
C201        C257   1.435       .  S
C201        O202   1.254       .  A
O202       Cr209   1.978       .  S
O203       Cr209   1.977       .  S
O203        C204   1.254       .  A
C204        C261   1.434       .  S
C204        O205   1.254       .  A
O205       Cr210   1.977       .  S
O206       Cr210   1.978       .  S
O206        C207   1.254       .  A
C207        C251   1.435       .  S
Cr208       O211   1.829       .  S
Cr209       O211   1.829       .  S
Cr210       O211   1.829       .  S
C212        C213   1.402       .  A
C212        C217   1.402       .  A
C212        C249   1.437       .  S
C213        C214   1.401       .  A
C213        H218   1.085       .  S
C214        C215   1.400       .  A
C214        C262   1.439       .  S
C215        C216   1.400       .  A
C215        H219   1.085       .  S
C216        C217   1.401       .  A
C216        C260   1.439       .  S
C217        H220   1.085       .  S
C221        C222   1.402       .  A
C221        C226   1.402       .  A
C221        C248   1.438       .  S
C222        C223   1.401       .  A
C222        H227   1.085       .  S
C223        C224   1.400       .  A
C223        C258   1.439       .  S
C224        C225   1.400       .  A
C224        H228   1.085       .  S
C225        C226   1.401       .  A
C225        C255   1.439       .  S
C226        H229   1.085       .  S
C230        C231   1.402       .  A
C230        C235   1.402       .  A
C230        C246   1.438       .  S
C231        C232   1.401       .  A
C231        H236   1.085       .  S
C232        C233   1.400       .  A
C232        C253   1.439       .  S
C233        C234   1.400       .  A
C233        H237   1.085       .  S
C234        C235   1.401       .  A
C234        C252   1.439       .  S
C235        H238   1.085       .  S
C239        C520   1.409   1_545  A
C239        C804   1.409       .  A
C239        C275   1.449       .  S
C240        C519   1.409       .  A
C240        C241   1.409       .  A
C240        C247   1.449       .  S
C241        C802   1.409       .  A
C241        C270   1.449       .  S
C242        C801   1.409   1_455  A
C242        C523   1.409       .  A
C242        C250   1.449       .  S
C243        C522   1.409   1_545  A
C243        C244   1.409       .  A
C243        C263   1.449       .  S
C244        C799   1.409   1_455  A
C244        C245   1.449       .  S
C245        C246   1.205       .  T
C247        C248   1.205       .  T
C249        C250   1.205       .  T
C251        C252   1.206       .  T
C253        C254   1.206       .  T
C255        C256   1.206       .  T
C257        C258   1.206       .  T
C259        C260   1.206       .  T
C261        C262   1.206       .  T
C263        C264   1.205       .  T
C265        C266   1.206       .  T
C267        C268   1.206       .  T
C269        C270   1.205       .  T
C271        C272   1.206       .  T
C273        C274   1.206       .  T
C275        C276   1.205       .  T
C277        C278   1.206       .  T
C279        C280   1.206       .  T
C281        C282   1.402       .  A
C281        C286   1.402       .  A
C281        C416   1.437       .  S
C282        C283   1.401       .  A
C282        H287   1.085       .  S
C283        C284   1.400       .  A
C283        C419   1.439       .  S
C284        C285   1.400       .  A
C284        H288   1.085       .  S
C285        C286   1.401       .  A
C285        C418   1.439       .  S
C286        H289   1.085       .  S
C290        C291   1.402       .  A
C290        C295   1.402       .  A
C290        C409   1.438       .  S
C291        C292   1.401       .  A
C291        H296   1.085       .  S
C292        C293   1.400       .  A
C292        C413   1.439       .  S
C293        C294   1.400       .  A
C293        H297   1.085       .  S
C294        C295   1.401       .  A
C294        C412   1.439       .  S
C295        H298   1.085       .  S
O299       Cr317   1.977       .  S
O299        C307   1.254       .  A
O300       Cr317   1.977       .  S
O300        C301   1.254       .  A
C301        C414   1.435       .  S
C301        O302   1.254       .  A
O302       Cr458   1.978       .  S
O303       Cr458   1.977       .  S
O303        C304   1.254       .  A
C304        C417   1.434       .  S
C304        O305   1.254       .  A
O305       Cr459   1.977   1_554  S
O306       Cr459   1.978   1_554  S
O306        C307   1.254       .  A
C307        C405   1.435       .  S
O308       Cr457   1.977       .  S
O308        C316   1.254       .  A
O309       Cr457   1.977       .  S
O309        C310   1.254       .  A
C310        C411   1.435       .  S
C310        O311   1.254       .  A
O311       Cr318   1.978       .  S
O312       Cr318   1.977       .  S
O312        C313   1.254       .  A
C313        C420   1.434       .  S
C313        O314   1.254       .  A
O314       Cr319   1.977       .  S
O315       Cr319   1.978       .  S
O315        C316   1.254       .  A
C316        C408   1.435       .  S
Cr317       O448   1.977   1_554  S
Cr317       O449   1.977   1_554  S
Cr317       O460   1.829       .  S
Cr318       O442   1.978       .  S
Cr318       O443   1.977       .  S
Cr318       O320   1.829       .  S
Cr319       O445   1.977       .  S
Cr319       O446   1.978       .  S
Cr319       O320   1.829       .  S
O320       Cr457   1.829       .  S
C321        C322   1.402       .  A
C321        C326   1.402       .  A
C321        C404   1.438       .  S
C322        C323   1.401       .  A
C322        H327   1.085       .  S
C323        C324   1.400       .  A
C323        C407   1.439       .  S
C324        C325   1.400       .  A
C324        H328   1.085       .  S
C325        C326   1.401       .  A
C325        C406   1.439       .  S
C326        H329   1.085       .  S
O330       Cr488   1.977       .  S
O330        C338   1.254       .  A
O331       Cr488   1.977       .  S
O331        C332   1.254       .  A
C332        C396   1.435       .  S
C332        O333   1.254       .  A
O333       Cr489   1.978       .  S
O334       Cr489   1.977       .  S
O334        C335   1.254       .  A
C335        C399   1.434       .  S
C335        O336   1.254       .  A
O336       Cr490   1.977       .  S
O337       Cr490   1.978       .  S
O337        C338   1.254       .  A
C338        C394   1.435       .  S
O339       Cr348   1.977       .  S
O339        C347   1.254       .  A
O340       Cr348   1.977       .  S
O340        C341   1.254       .  A
C341        C397   1.435       .  S
C341        O342   1.254       .  A
O342       Cr349   1.978       .  S
O343       Cr349   1.977       .  S
O343        C344   1.254       .  A
C344        C401   1.434       .  S
C344        O345   1.254       .  A
O345       Cr350   1.977       .  S
O346       Cr350   1.978       .  S
O346        C347   1.254       .  A
C347        C391   1.435       .  S
Cr348       O470   1.977   1_554  S
Cr348       O471   1.977   1_554  S
Cr348       O351   1.829       .  S
Cr349       O473   1.978   1_554  S
Cr349       O474   1.977   1_554  S
Cr349       O351   1.829       .  S
Cr350       O476   1.977   1_554  S
Cr350       O477   1.978   1_554  S
Cr350       O351   1.829       .  S
C352        C353   1.402       .  A
C352        C357   1.402       .  A
C352        C389   1.437       .  S
C353        C354   1.401       .  A
C353        H358   1.085       .  S
C354        C355   1.400       .  A
C354        C402   1.439       .  S
C355        C356   1.400       .  A
C355        H359   1.085       .  S
C356        C357   1.401       .  A
C356        C400   1.439       .  S
C357        H360   1.085       .  S
C361        C362   1.402       .  A
C361        C366   1.402       .  A
C361        C388   1.438       .  S
C362        C363   1.401       .  A
C362        H367   1.085       .  S
C363        C364   1.400       .  A
C363        C398   1.439       .  S
C364        C365   1.400       .  A
C364        H368   1.085       .  S
C365        C366   1.401       .  A
C365        C395   1.439       .  S
C366        H369   1.085       .  S
C370        C371   1.402       .  A
C370        C375   1.402       .  A
C370        C386   1.438       .  S
C371        C372   1.401       .  A
C371        H376   1.085       .  S
C372        C373   1.400       .  A
C372        C393   1.439       .  S
C373        C374   1.400       .  A
C373        H377   1.085       .  S
C374        C375   1.401       .  A
C374        C392   1.439       .  S
C375        H378   1.085       .  S
C379        C944   1.409       .  A
C379        C415   1.449       .  S
C380        C381   1.409       .  A
C380        C387   1.449       .  S
C381        C942   1.409       .  A
C381        C410   1.449       .  S
C382        C941   1.409   1_455  A
C382        C390   1.449       .  S
C383        C384   1.409       .  A
C383        C403   1.449       .  S
C384        C939   1.409   1_455  A
C384        C385   1.449       .  S
C385        C386   1.205       .  T
C387        C388   1.205       .  T
C389        C390   1.205       .  T
C391        C392   1.206       .  T
C393        C394   1.206       .  T
C395        C396   1.206       .  T
C397        C398   1.206       .  T
C399        C400   1.206       .  T
C401        C402   1.206       .  T
C403        C404   1.205       .  T
C405        C406   1.206       .  T
C407        C408   1.206       .  T
C409        C410   1.205       .  T
C411        C412   1.206       .  T
C413        C414   1.206       .  T
C415        C416   1.205       .  T
C417        C418   1.206       .  T
C419        C420   1.206       .  T
C421        C422   1.402       .  A
C421        C426   1.402       .  A
C421        C556   1.437       .  S
C422        C423   1.401       .  A
C422        H427   1.085       .  S
C423        C424   1.400       .  A
C423        C559   1.439       .  S
C424        C425   1.400       .  A
C424        H428   1.085       .  S
C425        C426   1.401       .  A
C425        C558   1.439       .  S
C426        H429   1.085       .  S
C430        C431   1.402       .  A
C430        C435   1.402       .  A
C430        C549   1.438       .  S
C431        C432   1.401       .  A
C431        H436   1.085       .  S
C432        C433   1.400       .  A
C432        C553   1.439       .  S
C433        C434   1.400       .  A
C433        H437   1.085       .  S
C434        C435   1.401       .  A
C434        C552   1.439       .  S
C435        H438   1.085       .  S
O439       Cr457   1.977       .  S
O439        C447   1.254       .  A
O440       Cr457   1.977       .  S
O440        C441   1.254       .  A
C441        C554   1.435       .  S
C441        O442   1.254       .  A
O443        C444   1.254       .  A
C444        C557   1.434       .  S
C444        O445   1.254       .  A
O446        C447   1.254       .  A
C447        C545   1.435       .  S
O448        C456   1.254       .  A
O449        C450   1.254       .  A
C450        C551   1.435       .  S
C450        O451   1.254       .  A
O451       Cr458   1.978   1_556  S
O452       Cr458   1.977   1_556  S
O452        C453   1.254       .  A
C453        C560   1.434       .  S
C453        O454   1.254       .  A
O454       Cr459   1.977       .  S
O455       Cr459   1.978       .  S
O455        C456   1.254       .  A
C456        C548   1.435       .  S
Cr458       O460   1.829       .  S
Cr459       O460   1.829   1_556  S
C461        C462   1.402       .  A
C461        C466   1.402       .  A
C461        C544   1.438       .  S
C462        C463   1.401       .  A
C462        H467   1.085       .  S
C463        C464   1.400       .  A
C463        C547   1.439       .  S
C464        C465   1.400       .  A
C464        H468   1.085       .  S
C465        C466   1.401       .  A
C465        C546   1.439       .  S
C466        H469   1.085       .  S
O470        C478   1.254       .  A
O471        C472   1.254       .  A
C472        C536   1.435       .  S
C472        O473   1.254       .  A
O474        C475   1.254       .  A
C475        C539   1.434       .  S
C475        O476   1.254       .  A
O477        C478   1.254       .  A
C478        C534   1.435       .  S
O479       Cr488   1.977       .  S
O479        C487   1.254       .  A
O480       Cr488   1.977       .  S
O480        C481   1.254       .  A
C481        C537   1.435       .  S
C481        O482   1.254       .  A
O482       Cr489   1.978       .  S
O483       Cr489   1.977       .  S
O483        C484   1.254       .  A
C484        C541   1.434       .  S
C484        O485   1.254       .  A
O485       Cr490   1.977       .  S
O486       Cr490   1.978       .  S
O486        C487   1.254       .  A
C487        C531   1.435       .  S
Cr488       O491   1.829       .  S
Cr489       O491   1.829       .  S
Cr490       O491   1.829       .  S
C492        C493   1.402       .  A
C492        C497   1.402       .  A
C492        C529   1.437       .  S
C493        C494   1.401       .  A
C493        H498   1.085       .  S
C494        C495   1.400       .  A
C494        C542   1.439       .  S
C495        C496   1.400       .  A
C495        H499   1.085       .  S
C496        C497   1.401       .  A
C496        C540   1.439       .  S
C497        H500   1.085       .  S
C501        C502   1.402       .  A
C501        C506   1.402       .  A
C501        C528   1.438       .  S
C502        C503   1.401       .  A
C502        H507   1.085       .  S
C503        C504   1.400       .  A
C503        C538   1.439       .  S
C504        C505   1.400       .  A
C504        H508   1.085       .  S
C505        C506   1.401       .  A
C505        C535   1.439       .  S
C506        H509   1.085       .  S
C510        C511   1.402       .  A
C510        C515   1.402       .  A
C510        C526   1.438       .  S
C511        C512   1.401       .  A
C511        H516   1.085       .  S
C512        C513   1.400       .  A
C512        C533   1.439       .  S
C513        C514   1.400       .  A
C513        H517   1.085       .  S
C514        C515   1.401       .  A
C514        C532   1.439       .  S
C515        H518   1.085       .  S
C519       C1084   1.409       .  A
C519        C555   1.449       .  S
C520        C521   1.409       .  A
C520        C527   1.449       .  S
C521       C1082   1.409       .  A
C521        C550   1.449       .  S
C522       C1081   1.409   1_455  A
C522        C530   1.449       .  S
C523        C524   1.409       .  A
C523        C543   1.449       .  S
C524       C1079   1.409   1_455  A
C524        C525   1.449       .  S
C525        C526   1.205       .  T
C527        C528   1.205       .  T
C529        C530   1.205       .  T
C531        C532   1.206       .  T
C533        C534   1.206       .  T
C535        C536   1.206       .  T
C537        C538   1.206       .  T
C539        C540   1.206       .  T
C541        C542   1.206       .  T
C543        C544   1.205       .  T
C545        C546   1.206       .  T
C547        C548   1.206       .  T
C549        C550   1.205       .  T
C551        C552   1.206       .  T
C553        C554   1.206       .  T
C555        C556   1.205       .  T
C557        C558   1.206       .  T
C559        C560   1.206       .  T
C561        C562   1.402       .  A
C561        C566   1.402       .  A
C561        C696   1.437       .  S
C562        C563   1.401       .  A
C562        H567   1.085       .  S
C563        C564   1.400       .  A
C563        C699   1.439       .  S
C564        C565   1.400       .  A
C564        H568   1.085       .  S
C565        C566   1.401       .  A
C565        C698   1.439       .  S
C566        H569   1.085       .  S
C570        C571   1.402       .  A
C570        C575   1.402       .  A
C570        C689   1.438       .  S
C571        C572   1.401       .  A
C571        H576   1.085       .  S
C572        C573   1.400       .  A
C572        C693   1.439       .  S
C573        C574   1.400       .  A
C573        H577   1.085       .  S
C574        C575   1.401       .  A
C574        C692   1.439       .  S
C575        H578   1.085       .  S
O579       Cr597   1.977       .  S
O579        C587   1.254       .  A
O580       Cr597   1.977       .  S
O580        C581   1.254       .  A
C581        C694   1.435       .  S
C581        O582   1.254       .  A
O582       Cr738   1.978       .  S
O583       Cr738   1.977       .  S
O583        C584   1.254       .  A
C584        C697   1.434       .  S
C584        O585   1.254       .  A
O585       Cr739   1.977   1_554  S
O586       Cr739   1.978   1_554  S
O586        C587   1.254       .  A
C587        C685   1.435       .  S
O588       Cr737   1.977       .  S
O588        C596   1.254       .  A
O589       Cr737   1.977       .  S
O589        C590   1.254       .  A
C590        C691   1.435       .  S
C590        O591   1.254       .  A
O591       Cr598   1.978       .  S
O592       Cr598   1.977       .  S
O592        C593   1.254       .  A
C593        C700   1.434       .  S
C593        O594   1.254       .  A
O594       Cr599   1.977       .  S
O595       Cr599   1.978       .  S
O595        C596   1.254       .  A
C596        C688   1.435       .  S
Cr597       O728   1.977   1_554  S
Cr597       O729   1.977   1_554  S
Cr597       O740   1.829       .  S
Cr598       O722   1.978       .  S
Cr598       O723   1.977       .  S
Cr598       O600   1.829       .  S
Cr599       O725   1.977       .  S
Cr599       O726   1.978       .  S
Cr599       O600   1.829       .  S
O600       Cr737   1.829       .  S
C601        C602   1.402       .  A
C601        C606   1.402       .  A
C601        C684   1.438       .  S
C602        C603   1.401       .  A
C602        H607   1.085       .  S
C603        C604   1.400       .  A
C603        C687   1.439       .  S
C604        C605   1.400       .  A
C604        H608   1.085       .  S
C605        C606   1.401       .  A
C605        C686   1.439       .  S
C606        H609   1.085       .  S
O610       Cr768   1.977       .  S
O610        C618   1.254       .  A
O611       Cr768   1.977       .  S
O611        C612   1.254       .  A
C612        C676   1.435       .  S
C612        O613   1.254       .  A
O613       Cr769   1.978       .  S
O614       Cr769   1.977       .  S
O614        C615   1.254       .  A
C615        C679   1.434       .  S
C615        O616   1.254       .  A
O616       Cr770   1.977       .  S
O617       Cr770   1.978       .  S
O617        C618   1.254       .  A
C618        C674   1.435       .  S
O619       Cr628   1.977       .  S
O619        C627   1.254       .  A
O620       Cr628   1.977       .  S
O620        C621   1.254       .  A
C621        C677   1.435       .  S
C621        O622   1.254       .  A
O622       Cr629   1.978       .  S
O623       Cr629   1.977       .  S
O623        C624   1.254       .  A
C624        C681   1.434       .  S
C624        O625   1.254       .  A
O625       Cr630   1.977       .  S
O626       Cr630   1.978       .  S
O626        C627   1.254       .  A
C627        C671   1.435       .  S
Cr628       O750   1.977   1_554  S
Cr628       O751   1.977   1_554  S
Cr628       O631   1.829       .  S
Cr629       O753   1.978   1_554  S
Cr629       O754   1.977   1_554  S
Cr629       O631   1.829       .  S
Cr630       O756   1.977   1_554  S
Cr630       O757   1.978   1_554  S
Cr630       O631   1.829       .  S
C632        C633   1.402       .  A
C632        C637   1.402       .  A
C632        C669   1.437       .  S
C633        C634   1.401       .  A
C633        H638   1.085       .  S
C634        C635   1.400       .  A
C634        C682   1.439       .  S
C635        C636   1.400       .  A
C635        H639   1.085       .  S
C636        C637   1.401       .  A
C636        C680   1.439       .  S
C637        H640   1.085       .  S
C641        C642   1.402       .  A
C641        C646   1.402       .  A
C641        C668   1.438       .  S
C642        C643   1.401       .  A
C642        H647   1.085       .  S
C643        C644   1.400       .  A
C643        C678   1.439       .  S
C644        C645   1.400       .  A
C644        H648   1.085       .  S
C645        C646   1.401       .  A
C645        C675   1.439       .  S
C646        H649   1.085       .  S
C650        C651   1.402       .  A
C650        C655   1.402       .  A
C650        C666   1.438       .  S
C651        C652   1.401       .  A
C651        H656   1.085       .  S
C652        C653   1.400       .  A
C652        C673   1.439       .  S
C653        C654   1.400       .  A
C653        H657   1.085       .  S
C654        C655   1.401       .  A
C654        C672   1.439       .  S
C655        H658   1.085       .  S
C659        C940   1.409   1_545  A
C659        C695   1.449       .  S
C660        C939   1.409       .  A
C660        C661   1.409       .  A
C660        C667   1.449       .  S
C661        C690   1.449       .  S
C662        C943   1.409       .  A
C662        C670   1.449       .  S
C663        C942   1.409   1_545  A
C663        C664   1.409       .  A
C663        C683   1.449       .  S
C664        C665   1.449       .  S
C665        C666   1.205       .  T
C667        C668   1.205       .  T
C669        C670   1.205       .  T
C671        C672   1.206       .  T
C673        C674   1.206       .  T
C675        C676   1.206       .  T
C677        C678   1.206       .  T
C679        C680   1.206       .  T
C681        C682   1.206       .  T
C683        C684   1.205       .  T
C685        C686   1.206       .  T
C687        C688   1.206       .  T
C689        C690   1.205       .  T
C691        C692   1.206       .  T
C693        C694   1.206       .  T
C695        C696   1.205       .  T
C697        C698   1.206       .  T
C699        C700   1.206       .  T
C701        C702   1.402       .  A
C701        C706   1.402       .  A
C701        C836   1.437       .  S
C702        C703   1.401       .  A
C702        H707   1.085       .  S
C703        C704   1.400       .  A
C703        C839   1.439       .  S
C704        C705   1.400       .  A
C704        H708   1.085       .  S
C705        C706   1.401       .  A
C705        C838   1.439       .  S
C706        H709   1.085       .  S
C710        C711   1.402       .  A
C710        C715   1.402       .  A
C710        C829   1.438       .  S
C711        C712   1.401       .  A
C711        H716   1.085       .  S
C712        C713   1.400       .  A
C712        C833   1.439       .  S
C713        C714   1.400       .  A
C713        H717   1.085       .  S
C714        C715   1.401       .  A
C714        C832   1.439       .  S
C715        H718   1.085       .  S
O719       Cr737   1.977       .  S
O719        C727   1.254       .  A
O720       Cr737   1.977       .  S
O720        C721   1.254       .  A
C721        C834   1.435       .  S
C721        O722   1.254       .  A
O723        C724   1.254       .  A
C724        C837   1.434       .  S
C724        O725   1.254       .  A
O726        C727   1.254       .  A
C727        C825   1.435       .  S
O728        C736   1.254       .  A
O729        C730   1.254       .  A
C730        C831   1.435       .  S
C730        O731   1.254       .  A
O731       Cr738   1.978   1_556  S
O732       Cr738   1.977   1_556  S
O732        C733   1.254       .  A
C733        C840   1.434       .  S
C733        O734   1.254       .  A
O734       Cr739   1.977       .  S
O735       Cr739   1.978       .  S
O735        C736   1.254       .  A
C736        C828   1.435       .  S
Cr738       O740   1.829       .  S
Cr739       O740   1.829   1_556  S
C741        C742   1.402       .  A
C741        C746   1.402       .  A
C741        C824   1.438       .  S
C742        C743   1.401       .  A
C742        H747   1.085       .  S
C743        C744   1.400       .  A
C743        C827   1.439       .  S
C744        C745   1.400       .  A
C744        H748   1.085       .  S
C745        C746   1.401       .  A
C745        C826   1.439       .  S
C746        H749   1.085       .  S
O750        C758   1.254       .  A
O751        C752   1.254       .  A
C752        C816   1.435       .  S
C752        O753   1.254       .  A
O754        C755   1.254       .  A
C755        C819   1.434       .  S
C755        O756   1.254       .  A
O757        C758   1.254       .  A
C758        C814   1.435       .  S
O759       Cr768   1.977       .  S
O759        C767   1.254       .  A
O760       Cr768   1.977       .  S
O760        C761   1.254       .  A
C761        C817   1.435       .  S
C761        O762   1.254       .  A
O762       Cr769   1.978       .  S
O763       Cr769   1.977       .  S
O763        C764   1.254       .  A
C764        C821   1.434       .  S
C764        O765   1.254       .  A
O765       Cr770   1.977       .  S
O766       Cr770   1.978       .  S
O766        C767   1.254       .  A
C767        C811   1.435       .  S
Cr768       O771   1.829       .  S
Cr769       O771   1.829       .  S
Cr770       O771   1.829       .  S
C772        C773   1.402       .  A
C772        C777   1.402       .  A
C772        C809   1.437       .  S
C773        C774   1.401       .  A
C773        H778   1.085       .  S
C774        C775   1.400       .  A
C774        C822   1.439       .  S
C775        C776   1.400       .  A
C775        H779   1.085       .  S
C776        C777   1.401       .  A
C776        C820   1.439       .  S
C777        H780   1.085       .  S
C781        C782   1.402       .  A
C781        C786   1.402       .  A
C781        C808   1.438       .  S
C782        C783   1.401       .  A
C782        H787   1.085       .  S
C783        C784   1.400       .  A
C783        C818   1.439       .  S
C784        C785   1.400       .  A
C784        H788   1.085       .  S
C785        C786   1.401       .  A
C785        C815   1.439       .  S
C786        H789   1.085       .  S
C790        C791   1.402       .  A
C790        C795   1.402       .  A
C790        C806   1.438       .  S
C791        C792   1.401       .  A
C791        H796   1.085       .  S
C792        C793   1.400       .  A
C792        C813   1.439       .  S
C793        C794   1.400       .  A
C793        H797   1.085       .  S
C794        C795   1.401       .  A
C794        C812   1.439       .  S
C795        H798   1.085       .  S
C799       C1080   1.409   1_545  A
C799        C835   1.449       .  S
C800       C1079   1.409       .  A
C800        C801   1.409       .  A
C800        C807   1.449       .  S
C801        C830   1.449       .  S
C802       C1083   1.409       .  A
C802        C810   1.449       .  S
C803       C1082   1.409   1_545  A
C803        C804   1.409       .  A
C803        C823   1.449       .  S
C804        C805   1.449       .  S
C805        C806   1.205       .  T
C807        C808   1.205       .  T
C809        C810   1.205       .  T
C811        C812   1.206       .  T
C813        C814   1.206       .  T
C815        C816   1.206       .  T
C817        C818   1.206       .  T
C819        C820   1.206       .  T
C821        C822   1.206       .  T
C823        C824   1.205       .  T
C825        C826   1.206       .  T
C827        C828   1.206       .  T
C829        C830   1.205       .  T
C831        C832   1.206       .  T
C833        C834   1.206       .  T
C835        C836   1.205       .  T
C837        C838   1.206       .  T
C839        C840   1.206       .  T
C841        C842   1.402       .  A
C841        C846   1.402       .  A
C841        C976   1.437       .  S
C842        C843   1.401       .  A
C842        H847   1.085       .  S
C843        C844   1.400       .  A
C843        C979   1.439       .  S
C844        C845   1.400       .  A
C844        H848   1.085       .  S
C845        C846   1.401       .  A
C845        C978   1.439       .  S
C846        H849   1.085       .  S
C850        C851   1.402       .  A
C850        C855   1.402       .  A
C850        C969   1.438       .  S
C851        C852   1.401       .  A
C851        H856   1.085       .  S
C852        C853   1.400       .  A
C852        C973   1.439       .  S
C853        C854   1.400       .  A
C853        H857   1.085       .  S
C854        C855   1.401       .  A
C854        C972   1.439       .  S
C855        H858   1.085       .  S
O859       Cr877   1.977       .  S
O859        C867   1.254       .  A
O860       Cr877   1.977       .  S
O860        C861   1.254       .  A
C861        C974   1.435       .  S
C861        O862   1.254       .  A
O862      Cr1018   1.978       .  S
O863      Cr1018   1.977       .  S
O863        C864   1.254       .  A
C864        C977   1.434       .  S
C864        O865   1.254       .  A
O865      Cr1019   1.977   1_554  S
O866      Cr1019   1.978   1_554  S
O866        C867   1.254       .  A
C867        C965   1.435       .  S
O868      Cr1017   1.977       .  S
O868        C876   1.254       .  A
O869      Cr1017   1.977       .  S
O869        C870   1.254       .  A
C870        C971   1.435       .  S
C870        O871   1.254       .  A
O871       Cr878   1.978       .  S
O872       Cr878   1.977       .  S
O872        C873   1.254       .  A
C873        C980   1.434       .  S
C873        O874   1.254       .  A
O874       Cr879   1.977       .  S
O875       Cr879   1.978       .  S
O875        C876   1.254       .  A
C876        C968   1.435       .  S
Cr877      O1008   1.977   1_554  S
Cr877      O1009   1.977   1_554  S
Cr877      O1020   1.829       .  S
Cr878      O1002   1.978       .  S
Cr878      O1003   1.977       .  S
Cr878       O880   1.829       .  S
Cr879      O1005   1.977       .  S
Cr879      O1006   1.978       .  S
Cr879       O880   1.829       .  S
O880      Cr1017   1.829       .  S
C881        C882   1.402       .  A
C881        C886   1.402       .  A
C881        C964   1.438       .  S
C882        C883   1.401       .  A
C882        H887   1.085       .  S
C883        C884   1.400       .  A
C883        C967   1.439       .  S
C884        C885   1.400       .  A
C884        H888   1.085       .  S
C885        C886   1.401       .  A
C885        C966   1.439       .  S
C886        H889   1.085       .  S
O890      Cr1048   1.977       .  S
O890        C898   1.254       .  A
O891      Cr1048   1.977       .  S
O891        C892   1.254       .  A
C892        C956   1.435       .  S
C892        O893   1.254       .  A
O893      Cr1049   1.978       .  S
O894      Cr1049   1.977       .  S
O894        C895   1.254       .  A
C895        C959   1.434       .  S
C895        O896   1.254       .  A
O896      Cr1050   1.977       .  S
O897      Cr1050   1.978       .  S
O897        C898   1.254       .  A
C898        C954   1.435       .  S
O899       Cr908   1.977       .  S
O899        C907   1.254       .  A
O900       Cr908   1.977       .  S
O900        C901   1.254       .  A
C901        C957   1.435       .  S
C901        O902   1.254       .  A
O902       Cr909   1.978       .  S
O903       Cr909   1.977       .  S
O903        C904   1.254       .  A
C904        C961   1.434       .  S
C904        O905   1.254       .  A
O905       Cr910   1.977       .  S
O906       Cr910   1.978       .  S
O906        C907   1.254       .  A
C907        C951   1.435       .  S
Cr908      O1030   1.977   1_554  S
Cr908      O1031   1.977   1_554  S
Cr908       O911   1.829       .  S
Cr909      O1033   1.978   1_554  S
Cr909      O1034   1.977   1_554  S
Cr909       O911   1.829       .  S
Cr910      O1036   1.977   1_554  S
Cr910      O1037   1.978   1_554  S
Cr910       O911   1.829       .  S
C912        C913   1.402       .  A
C912        C917   1.402       .  A
C912        C949   1.437       .  S
C913        C914   1.401       .  A
C913        H918   1.085       .  S
C914        C915   1.400       .  A
C914        C962   1.439       .  S
C915        C916   1.400       .  A
C915        H919   1.085       .  S
C916        C917   1.401       .  A
C916        C960   1.439       .  S
C917        H920   1.085       .  S
C921        C922   1.402       .  A
C921        C926   1.402       .  A
C921        C948   1.438       .  S
C922        C923   1.401       .  A
C922        H927   1.085       .  S
C923        C924   1.400       .  A
C923        C958   1.439       .  S
C924        C925   1.400       .  A
C924        H928   1.085       .  S
C925        C926   1.401       .  A
C925        C955   1.439       .  S
C926        H929   1.085       .  S
C930        C931   1.402       .  A
C930        C935   1.402       .  A
C930        C946   1.438       .  S
C931        C932   1.401       .  A
C931        H936   1.085       .  S
C932        C933   1.400       .  A
C932        C953   1.439       .  S
C933        C934   1.400       .  A
C933        H937   1.085       .  S
C934        C935   1.401       .  A
C934        C952   1.439       .  S
C935        H938   1.085       .  S
C939        C975   1.449       .  S
C940        C941   1.409       .  A
C940        C947   1.449       .  S
C941        C970   1.449       .  S
C942        C950   1.449       .  S
C943        C944   1.409       .  A
C943        C963   1.449       .  S
C944        C945   1.449       .  S
C945        C946   1.205       .  T
C947        C948   1.205       .  T
C949        C950   1.205       .  T
C951        C952   1.206       .  T
C953        C954   1.206       .  T
C955        C956   1.206       .  T
C957        C958   1.206       .  T
C959        C960   1.206       .  T
C961        C962   1.206       .  T
C963        C964   1.205       .  T
C965        C966   1.206       .  T
C967        C968   1.206       .  T
C969        C970   1.205       .  T
C971        C972   1.206       .  T
C973        C974   1.206       .  T
C975        C976   1.205       .  T
C977        C978   1.206       .  T
C979        C980   1.206       .  T
C981        C982   1.402       .  A
C981        C986   1.402       .  A
C981       C1116   1.437       .  S
C982        C983   1.401       .  A
C982        H987   1.085       .  S
C983        C984   1.400       .  A
C983       C1119   1.439       .  S
C984        C985   1.400       .  A
C984        H988   1.085       .  S
C985        C986   1.401       .  A
C985       C1118   1.439       .  S
C986        H989   1.085       .  S
C990        C991   1.402       .  A
C990        C995   1.402       .  A
C990       C1109   1.438       .  S
C991        C992   1.401       .  A
C991        H996   1.085       .  S
C992        C993   1.400       .  A
C992       C1113   1.439       .  S
C993        C994   1.400       .  A
C993        H997   1.085       .  S
C994        C995   1.401       .  A
C994       C1112   1.439       .  S
C995        H998   1.085       .  S
O999      Cr1017   1.977       .  S
O999       C1007   1.254       .  A
O1000     Cr1017   1.977       .  S
O1000      C1001   1.254       .  A
C1001      C1114   1.435       .  S
C1001      O1002   1.254       .  A
O1003      C1004   1.254       .  A
C1004      C1117   1.434       .  S
C1004      O1005   1.254       .  A
O1006      C1007   1.254       .  A
C1007      C1105   1.435       .  S
O1008      C1016   1.254       .  A
O1009      C1010   1.254       .  A
C1010      C1111   1.435       .  S
C1010      O1011   1.254       .  A
O1011     Cr1018   1.978   1_556  S
O1012     Cr1018   1.977   1_556  S
O1012      C1013   1.254       .  A
C1013      C1120   1.434       .  S
C1013      O1014   1.254       .  A
O1014     Cr1019   1.977       .  S
O1015     Cr1019   1.978       .  S
O1015      C1016   1.254       .  A
C1016      C1108   1.435       .  S
Cr1018     O1020   1.829       .  S
Cr1019     O1020   1.829   1_556  S
C1021      C1022   1.402       .  A
C1021      C1026   1.402       .  A
C1021      C1104   1.438       .  S
C1022      C1023   1.401       .  A
C1022      H1027   1.085       .  S
C1023      C1024   1.400       .  A
C1023      C1107   1.439       .  S
C1024      C1025   1.400       .  A
C1024      H1028   1.085       .  S
C1025      C1026   1.401       .  A
C1025      C1106   1.439       .  S
C1026      H1029   1.085       .  S
O1030      C1038   1.254       .  A
O1031      C1032   1.254       .  A
C1032      C1096   1.435       .  S
C1032      O1033   1.254       .  A
O1034      C1035   1.254       .  A
C1035      C1099   1.434       .  S
C1035      O1036   1.254       .  A
O1037      C1038   1.254       .  A
C1038      C1094   1.435       .  S
O1039     Cr1048   1.977       .  S
O1039      C1047   1.254       .  A
O1040     Cr1048   1.977       .  S
O1040      C1041   1.254       .  A
C1041      C1097   1.435       .  S
C1041      O1042   1.254       .  A
O1042     Cr1049   1.978       .  S
O1043     Cr1049   1.977       .  S
O1043      C1044   1.254       .  A
C1044      C1101   1.434       .  S
C1044      O1045   1.254       .  A
O1045     Cr1050   1.977       .  S
O1046     Cr1050   1.978       .  S
O1046      C1047   1.254       .  A
C1047      C1091   1.435       .  S
Cr1048     O1051   1.829       .  S
Cr1049     O1051   1.829       .  S
Cr1050     O1051   1.829       .  S
C1052      C1053   1.402       .  A
C1052      C1057   1.402       .  A
C1052      C1089   1.437       .  S
C1053      C1054   1.401       .  A
C1053      H1058   1.085       .  S
C1054      C1055   1.400       .  A
C1054      C1102   1.439       .  S
C1055      C1056   1.400       .  A
C1055      H1059   1.085       .  S
C1056      C1057   1.401       .  A
C1056      C1100   1.439       .  S
C1057      H1060   1.085       .  S
C1061      C1062   1.402       .  A
C1061      C1066   1.402       .  A
C1061      C1088   1.438       .  S
C1062      C1063   1.401       .  A
C1062      H1067   1.085       .  S
C1063      C1064   1.400       .  A
C1063      C1098   1.439       .  S
C1064      C1065   1.400       .  A
C1064      H1068   1.085       .  S
C1065      C1066   1.401       .  A
C1065      C1095   1.439       .  S
C1066      H1069   1.085       .  S
C1070      C1071   1.402       .  A
C1070      C1075   1.402       .  A
C1070      C1086   1.438       .  S
C1071      C1072   1.401       .  A
C1071      H1076   1.085       .  S
C1072      C1073   1.400       .  A
C1072      C1093   1.439       .  S
C1073      C1074   1.400       .  A
C1073      H1077   1.085       .  S
C1074      C1075   1.401       .  A
C1074      C1092   1.439       .  S
C1075      H1078   1.085       .  S
C1079      C1115   1.449       .  S
C1080      C1081   1.409       .  A
C1080      C1087   1.449       .  S
C1081      C1110   1.449       .  S
C1082      C1090   1.449       .  S
C1083      C1084   1.409       .  A
C1083      C1103   1.449       .  S
C1084      C1085   1.449       .  S
C1085      C1086   1.205       .  T
C1087      C1088   1.205       .  T
C1089      C1090   1.205       .  T
C1091      C1092   1.206       .  T
C1093      C1094   1.206       .  T
C1095      C1096   1.206       .  T
C1097      C1098   1.206       .  T
C1099      C1100   1.206       .  T
C1101      C1102   1.206       .  T
C1103      C1104   1.205       .  T
C1105      C1106   1.206       .  T
C1107      C1108   1.206       .  T
C1109      C1110   1.205       .  T
C1111      C1112   1.206       .  T
C1113      C1114   1.206       .  T
C1115      C1116   1.205       .  T
C1117      C1118   1.206       .  T
C1119      C1120   1.206       .  T
