geometry optimzed in LAMMPS
_audit_creation_date              2020-11-30 
_audit_creation_method            'lammps2cif' 
_symmetry_space_group_name_H-M    'P1' 
_symmetry_Int_Tables_number       1 
_symmetry_cell_setting            triclinic 
loop_ 
_symmetry_equiv_pos_as_xyz 
  x,y,z 
_cell_length_a                    28.81310128 
_cell_length_b                    29.003549146146515 
_cell_length_c                    71.41820066565559 
_cell_angle_alpha                 90.05715813866952 
_cell_angle_beta                  90.14752278244308 
_cell_angle_gamma                 120.11001641530626 
loop_ 
_atom_site_label 
_atom_site_type_symbol 
_atom_site_fract_x 
_atom_site_fract_y 
_atom_site_fract_z 
_atom_site_charge 
C1          C  0.66977626  0.09502433  0.73364684     0.04600
C2          C  0.71634847  0.11490416  0.72289678    -0.11500
C3          C  0.71836437  0.08664041  0.70739503     0.02100
C4          C  0.67234470  0.03951896  0.70175123    -0.10000
C5          C  0.62487464  0.01950853  0.71214537     0.04600
C6          C  0.62415432  0.04710564  0.72820809    -0.09500
H7          H  0.75152593  0.15248942  0.72657662     0.10200
H8          H  0.67417118  0.01741032  0.68980606     0.07800
H9          H  0.58814334  0.03065525  0.73662842     0.07600
C10         C  0.96844666  0.15451792  0.64422526     0.04600
C11         C  0.92151841  0.13642569  0.65465362    -0.11500
C12         C  0.91998223  0.16589869  0.66988203     0.02100
C13         C  0.96628100  0.21315655  0.67520381    -0.10000
C14         C  0.01387223  0.23166328  0.66496830     0.04600
C15         C  0.01450678  0.20227971  0.64943078    -0.09500
H16         H  0.88593229  0.09912683  0.65099029     0.10200
H17         H  0.96473418  0.23622099  0.68688736     0.07800
H18         H  0.05091948  0.21681443  0.64132248     0.07600
C19         C  0.59654814  0.91191138  0.82917278     0.04600
C20         C  0.56687588  0.88403419  0.81321916    -0.11500
C21         C  0.56670592  0.83798320  0.80699292     0.02100
C22         C  0.59639446  0.81998778  0.81687279    -0.10000
C23         C  0.62600377  0.84718625  0.83274018     0.04600
C24         C  0.62643754  0.89335734  0.83884924    -0.09500
H25         H  0.54366387  0.89807551  0.80569421     0.10200
H26         H  0.59560486  0.78382471  0.81246126     0.07800
H27         H  0.64959049  0.91442416  0.85113112     0.07600
C28         C  0.75251018  0.68482863  0.87842331     0.04600
C29         C  0.77770391  0.70944274  0.89528159    -0.11500
C30         C  0.78074883  0.75727274  0.90068461     0.02100
C31         C  0.75930772  0.78084827  0.88913681    -0.10000
C32         C  0.73438801  0.75658852  0.87225908     0.04600
C33         C  0.73105111  0.70863095  0.86689395    -0.09500
H34         H  0.79371185  0.69084725  0.90438865     0.10200
H35         H  0.76144258  0.81776308  0.89340396     0.07800
H36         H  0.71107746  0.68947528  0.85390487     0.07600
C37         C  0.90703579  0.56144014  0.50082891     0.04600
C38         C  0.93069493  0.53686556  0.51097211    -0.11500
C39         C  0.92612189  0.48882831  0.50456725     0.02100
C40         C  0.89525346  0.46421770  0.48865450    -0.10000
C41         C  0.87414956  0.48957808  0.47789304     0.04600
C42         C  0.88078263  0.53849306  0.48389506    -0.09500
H43         H  0.95333133  0.55547196  0.52359212     0.10200
H44         H  0.88864759  0.42550006  0.48439256     0.07800
H45         H  0.86590117  0.55903816  0.47527056     0.07600
C46         C  0.12233070  0.43180897  0.56423959     0.04600
C47         C  0.09099461  0.44714783  0.55396094    -0.11500
C48         C  0.05753192  0.41490060  0.53948492     0.02100
C49         C  0.05755521  0.36796932  0.53466902    -0.10000
C50         C  0.08973287  0.35254000  0.54460391     0.04600
C51         C  0.12208544  0.38476508  0.55939544    -0.09500
H52         H  0.09156075  0.48372337  0.55761241     0.10200
H53         H  0.03068055  0.34219341  0.52381291     0.07800
H54         H  0.14583514  0.37244609  0.56749598     0.07600
C55         C  0.69412950  0.55892528  0.00214503     0.04600
C56         C  0.64710904  0.53934686  0.01282717    -0.11500
C57         C  0.60255610  0.48966530  0.00869677     0.02100
C58         C  0.60434454  0.45934705  0.99390960    -0.10000
C59         C  0.64948546  0.47939457  0.98246499     0.04600
C60         C  0.69500172  0.52842442  0.98696455    -0.09500
H61         H  0.64419690  0.56345558  0.02385067     0.10200
H62         H  0.56936671  0.42097130  0.99082328     0.07800
H63         H  0.73039361  0.54353318  0.97828796     0.07600
C64         C  0.30479961  0.34835071  0.04744467     0.04600
C65         C  0.30201899  0.37514566  0.06343726    -0.11500
C66         C  0.34824930  0.41988710  0.07060592     0.02100
C67         C  0.39742371  0.43740129  0.06159680    -0.10000
C68         C  0.40033327  0.41242992  0.04529541     0.04600
C69         C  0.35406891  0.36835543  0.03814667    -0.09500
H70         H  0.26399248  0.36064388  0.07046094     0.10200
H71         H  0.43386836  0.47049479  0.06726227     0.07800
H72         H  0.35678552  0.34906870  0.02552838     0.07600
C73         C  0.00716465  0.75447654  0.40044335     0.04600
C74         C  0.05463997  0.77510548  0.39012639    -0.11500
C75         C  0.05617872  0.75125513  0.37328847     0.02100
C76         C  0.00945077  0.70723278  0.36642354    -0.10000
C77         C  0.96191282  0.68482665  0.37681746     0.04600
C78         C  0.96102591  0.70861034  0.39387539    -0.09500
H79         H  0.09066143  0.80984823  0.39522426     0.10200
H80         H  0.01039296  0.68990816  0.35307596     0.07800
H81         H  0.92488151  0.69081393  0.40225226     0.07600
C82         C  0.30943963  0.82884129  0.30986635     0.04600
C83         C  0.26193806  0.80723594  0.32013861    -0.11500
C84         C  0.26000352  0.83001139  0.33710127     0.02100
C85         C  0.30650763  0.87399247  0.34416098    -0.10000
C86         C  0.35431205  0.89719680  0.33383295     0.04600
C87         C  0.35569730  0.87407761  0.31669957    -0.09500
H88         H  0.22598045  0.77289549  0.31476468     0.10200
H89         H  0.30500710  0.89115524  0.35747630     0.07800
H90         H  0.39191312  0.89234841  0.30835576     0.07600
C91         C  0.23698564  0.23640929  0.16621945     0.04600
C92         C  0.26493514  0.21557884  0.17585954    -0.11500
C93         C  0.26525887  0.17034931  0.16913650     0.02100
C94         C  0.23581102  0.14481893  0.15302204    -0.10000
C95         C  0.20609578  0.16387198  0.14364528     0.04600
C96         C  0.20726040  0.21004095  0.15015216    -0.09500
H97         H  0.28672037  0.23472936  0.18857790     0.10200
H98         H  0.23706456  0.11066816  0.14746609     0.07800
H99         H  0.18570243  0.22578644  0.14254140     0.07600
C100        C  0.44121003  0.09208927  0.23309437     0.04600
C101        C  0.41600705  0.11421317  0.22260883    -0.11500
C102        C  0.39046617  0.09107393  0.20562233     0.02100
C103        C  0.39169345  0.04634179  0.19885101    -0.10000
C104        C  0.41506499  0.02237590  0.20944837     0.04600
C105        C  0.43985700  0.04565383  0.22664580    -0.09500
H106        H  0.41509202  0.14873235  0.22796633     0.10200
H107        H  0.37320184  0.02946039  0.18545037     0.07800
H108        H  0.45758538  0.02753208  0.23513348     0.07600
C109        C  0.04398334  0.59555786  0.83124660     0.04600
C110        C  0.05979258  0.64573550  0.83896362    -0.11500
C111        C  0.10617488  0.69092022  0.83254926     0.02100
C112        C  0.13596554  0.68596582  0.81799652    -0.10000
C113        C  0.12083917  0.63597375  0.81022264     0.04600
C114        C  0.07527314  0.59077257  0.81719400    -0.09500
H115        H  0.03606265  0.64963462  0.84993578     0.10200
H116        H  0.17053249  0.72137591  0.81255133     0.07800
H117        H  0.06365094  0.55175081  0.81153822     0.07600
C118        C  0.25319781  0.98355131  0.87614402     0.04600
C119        C  0.23120482  0.93803380  0.86472384    -0.11500
C120        C  0.18206777  0.89291296  0.86937849     0.02100
C121        C  0.15425936  0.89393802  0.88527999    -0.10000
C122        C  0.17611596  0.93896554  0.89689674     0.04600
C123        C  0.22545409  0.98357102  0.89219724    -0.09500
H124        H  0.25319189  0.93690914  0.85260908     0.10200
H125        H  0.11647615  0.85902276  0.88892248     0.07800
H126        H  0.24292331  0.01823338  0.90127317     0.07600
C127        C  0.79356378  0.73468529  0.64359424     0.04600
C128        C  0.80997727  0.70250661  0.65263175    -0.11500
C129        C  0.78452541  0.67511207  0.66896725     0.02100
C130        C  0.74012520  0.67751710  0.67579286    -0.10000
C131        C  0.72213672  0.70826410  0.66647805     0.04600
C132        C  0.75016780  0.73808411  0.65075815    -0.09500
H133        H  0.84251293  0.69838448  0.64689705     0.10200
H134        H  0.71910058  0.65475642  0.68806797     0.07800
H135        H  0.73747211  0.76329007  0.64392371     0.07600
C136        C  0.93143625  0.52959870  0.71322196     0.04600
C137        C  0.90976221  0.55479542  0.70246688    -0.11500
C138        C  0.86441558  0.55628027  0.70851939     0.02100
C139        C  0.83892625  0.53041858  0.72509919    -0.10000
C140        C  0.85867110  0.50340269  0.73572886     0.04600
C141        C  0.90519083  0.50330823  0.72980372    -0.09500
H142        H  0.92849962  0.57386213  0.68938200     0.10200
H143        H  0.80356821  0.53127879  0.72973117     0.07800
H144        H  0.92168645  0.48421212  0.73840692     0.07600
C145        C  0.37081814  0.26966942  0.49629740     0.04600
C146        C  0.39423185  0.26662791  0.47942279    -0.11500
C147        C  0.43806357  0.31232953  0.47180976     0.02100
C148        C  0.45716362  0.36152848  0.48080614    -0.10000
C149        C  0.43356181  0.36525595  0.49737060     0.04600
C150        C  0.39133480  0.31922734  0.50528469    -0.09500
H151        H  0.37818664  0.22892166  0.47210187     0.10200
H152        H  0.49086697  0.39705002  0.47500705     0.07800
H153        H  0.37459738  0.32218687  0.51849752     0.07600
C154        C  0.58067032  0.65908566  0.53963156     0.04600
C155        C  0.55554699  0.65805701  0.55660970    -0.11500
C156        C  0.50610848  0.61350946  0.56154576     0.02100
C157        C  0.48262429  0.56908063  0.54966901    -0.10000
C158        C  0.50815552  0.56855960  0.53313238     0.04600
C159        C  0.55554053  0.61444915  0.52773357    -0.09500
H160        H  0.57544670  0.69084594  0.56640980     0.10200
H161        H  0.44552509  0.53391658  0.55369075     0.07800
H162        H  0.57390871  0.61430624  0.51453808     0.07600
C163        C  0.39855174  0.06605267  0.00649915     0.04600
C164        C  0.41965918  0.03967153  0.01694506    -0.11500
C165        C  0.46824219  0.04325210  0.01161043     0.02100
C166        C  0.49624359  0.07418764  0.99617210    -0.10000
C167        C  0.47507338  0.09938172  0.98536523     0.04600
C168        C  0.42700032  0.09642053  0.99087411    -0.09500
H169        H  0.39691224  0.01392253  0.02844216     0.10200
H170        H  0.53374401  0.07683022  0.99211886     0.07800
H171        H  0.41027317  0.11561496  0.98243579     0.07600
C172        C  0.60150520  0.87528551  0.04745415     0.04600
C173        C  0.58814363  0.91160201  0.03964305    -0.11500
C174        C  0.54298150  0.91325456  0.04591934     0.02100
C175        C  0.51219502  0.88000228  0.06049816    -0.10000
C176        C  0.52523262  0.84402739  0.06845430     0.04600
C177        C  0.56868488  0.84044738  0.06154630    -0.09500
H178        H  0.61339319  0.93958896  0.02903930     0.10200
H179        H  0.47759857  0.88165733  0.06554962     0.07800
H180        H  0.57773954  0.81159989  0.06759186     0.07600
C181        C  0.26249309  0.20779004  0.37889211     0.04600
C182        C  0.23652320  0.17870541  0.39504991    -0.11500
C183        C  0.18789523  0.17408391  0.40096338     0.02100
C184        C  0.16588010  0.19985612  0.39072277    -0.10000
C185        C  0.19261889  0.23081619  0.37508022     0.04600
C186        C  0.24015694  0.23373041  0.36899770    -0.09500
H187        H  0.25481539  0.16065596  0.40328663     0.10200
H188        H  0.12862356  0.19702141  0.39518703     0.07800
H189        H  0.25966216  0.25632848  0.35651364     0.07600
C190        C  0.12743327  0.41640043  0.31207329     0.04600
C191        C  0.07959469  0.41409135  0.31745558    -0.11500
C192        C  0.05051681  0.38324467  0.33285120     0.02100
C193        C  0.06983881  0.35494943  0.34296445    -0.10000
C194        C  0.11782675  0.35731003  0.33775688     0.04600
C195        C  0.14670923  0.38841155  0.32239912    -0.09500
H196        H  0.06431839  0.43529555  0.30938511     0.10200
H197        H  0.04699076  0.33019847  0.35464996     0.07800
H198        H  0.18345225  0.38969730  0.31817604     0.07600
C199        C  0.85464024  0.27369567  0.23518376     0.04600
C200        C  0.83428035  0.22680587  0.22469977    -0.11500
C201        C  0.86202764  0.22423928  0.20908072     0.02100
C202        C  0.90966441  0.26973863  0.20361285    -0.10000
C203        C  0.93010822  0.31728806  0.21391742     0.04600
C204        C  0.90250458  0.31892506  0.22979183    -0.09500
H205        H  0.79669226  0.19219233  0.22874537     0.10200
H206        H  0.93125491  0.26793713  0.19149370     0.07800
H207        H  0.91880987  0.35488641  0.23820109     0.07600
C208        C  0.78890157  0.97572190  0.14301861     0.04600
C209        C  0.81040541  0.02231224  0.15383634    -0.11500
C210        C  0.78332131  0.02524758  0.16961099     0.02100
C211        C  0.73577978  0.98008194  0.17526155    -0.10000
C212        C  0.71421359  0.93258683  0.16493794     0.04600
C213        C  0.74047069  0.93086360  0.14862925    -0.09500
H214        H  0.84851501  0.05655346  0.15002469     0.10200
H215        H  0.71498009  0.98213230  0.18757017     0.07800
H216        H  0.72262466  0.89499813  0.14015112     0.07600
C217        C  0.53271130  0.64476716  0.31210069     0.04600
C218        C  0.55753376  0.68998540  0.32352966    -0.11500
C219        C  0.59137613  0.69349036  0.33816646     0.02100
C220        C  0.59714167  0.64940638  0.34244006    -0.10000
C221        C  0.57034481  0.60238683  0.33176082     0.04600
C222        C  0.53851933  0.60051804  0.31644798    -0.09500
H223        H  0.55190421  0.72356477  0.32066887     0.10200
H224        H  0.62319917  0.65202247  0.35385880     0.07800
H225        H  0.51996891  0.56543576  0.30757658     0.07600
C226        C  0.74954344  0.99001820  0.37940501     0.04600
C227        C  0.71845671  0.94144190  0.36995506    -0.11500
C228        C  0.71968960  0.89557294  0.37548802     0.02100
C229        C  0.75255679  0.89871299  0.39049450    -0.10000
C230        C  0.78294066  0.94656201  0.40027595     0.04600
C231        C  0.78183774  0.99226606  0.39454188    -0.09500
H232        H  0.69186167  0.93891174  0.35874140     0.10200
H233        H  0.75343959  0.86341336  0.39490303     0.07800
H234        H  0.80567769  0.02947886  0.40201380     0.07600
C235        C  0.41905376  0.26173447  0.73908114     0.04600
C236        C  0.39021270  0.21363479  0.72937521    -0.11500
C237        C  0.36175535  0.21077639  0.71311888     0.02100
C238        C  0.36300063  0.25685449  0.70638663    -0.10000
C239        C  0.39179913  0.30559411  0.71608232     0.04600
C240        C  0.41922650  0.30737098  0.73259788    -0.09500
H241        H  0.38945229  0.17819235  0.73462523     0.10200
H242        H  0.34207583  0.25474877  0.69350369     0.07800
H243        H  0.44089299  0.34422939  0.74044475     0.07600
C244        C  0.21416591  0.91308942  0.67276744     0.04600
C245        C  0.24288431  0.96188398  0.68235826    -0.11500
C246        C  0.23923573  0.00638879  0.67670099     0.02100
C247        C  0.20770232  0.00216505  0.66110454    -0.10000
C248        C  0.17914064  0.95395330  0.65131809     0.04600
C249        C  0.18100523  0.90919262  0.65764754    -0.09500
H250        H  0.26908949  0.96570200  0.69389076     0.10200
H251        H  0.20745470  0.03727215  0.65605141     0.07800
H252        H  0.15795332  0.87159201  0.65033063     0.07600
C253        C  0.68892366  0.05010553  0.50009514     0.04600
C254        C  0.69086383  0.07973497  0.48423743    -0.11500
C255        C  0.64507273  0.08155522  0.47846304     0.02100
C256        C  0.59729753  0.05317290  0.48860395    -0.10000
C257        C  0.59489600  0.02317693  0.50428453     0.04600
C258        C  0.64115487  0.02336913  0.51031789    -0.09500
H259        H  0.72704580  0.09923868  0.47590135     0.10200
H260        H  0.56149449  0.05329128  0.48399450     0.07800
H261        H  0.63942647  0.00114803  0.52274761     0.07600
C262        C  0.29848335  0.86275895  0.54421997     0.04600
C263        C  0.34600908  0.88734072  0.53375954    -0.11500
C264        C  0.39236267  0.88842018  0.54025812     0.02100
C265        C  0.39021014  0.86054821  0.55651044    -0.10000
C266        C  0.34259465  0.83377950  0.56679023     0.04600
C267        C  0.29719307  0.83589418  0.56081804    -0.09500
H268        H  0.34768768  0.90694594  0.52067309     0.10200
H269        H  0.42597168  0.86082460  0.56142664     0.07800
H270        H  0.26168209  0.81814097  0.56950462     0.07600
C271        C  0.62514872  0.53192818  0.21050066     0.04600
C272        C  0.67353913  0.56231597  0.20076060    -0.11500
C273        C  0.71960024  0.56064457  0.20594864     0.02100
C274        C  0.71779310  0.52903808  0.22099549    -0.10000
C275        C  0.67038964  0.49930461  0.23112081     0.04600
C276        C  0.62398226  0.50005882  0.22554714    -0.09500
H277        H  0.67612480  0.58873364  0.18958887     0.10200
H278        H  0.75364683  0.52797408  0.22486844     0.07800
H279        H  0.58713688  0.47664839  0.23324589     0.07600
C280        C  0.01857914  0.72335573  0.16759093     0.04600
C281        C  0.96928262  0.69071362  0.17641858    -0.11500
C282        C  0.92243756  0.68867079  0.16969199     0.02100
C283        C  0.92511058  0.71938643  0.15419591    -0.10000
C284        C  0.97435213  0.75244167  0.14558401     0.04600
C285        C  0.02100042  0.75520522  0.15251630    -0.09500
H286        H  0.96690191  0.66528304  0.18792642     0.10200
H287        H  0.88888124  0.71710664  0.14871702     0.07800
H288        H  0.05894674  0.78034393  0.14557397     0.07600
C289        C  0.88737684  0.25682921  0.00459907     0.04600
C290        C  0.86613598  0.25759277  0.98689964    -0.11500
C291        C  0.86541940  0.30322928  0.98065403     0.02100
C292        C  0.88844014  0.34905959  0.99181618    -0.10000
C293        C  0.91031279  0.34915055  0.00929495     0.04600
C294        C  0.90802284  0.30267512  0.01591922    -0.09500
H295        H  0.85105295  0.22318409  0.97776428     0.10200
H296        H  0.88905234  0.38477065  0.98697848     0.07800
H297        H  0.92339506  0.30284340  0.02979077     0.07600
C298        C  0.05535548  0.64557644  0.04940182     0.04600
C299        C  0.08207283  0.64769694  0.06613645    -0.11500
C300        C  0.08109273  0.60203750  0.07297879     0.02100
C301        C  0.05141256  0.55360394  0.06364279    -0.10000
C302        C  0.02429037  0.55067829  0.04709269     0.04600
C303        C  0.02680068  0.59669642  0.03982718    -0.09500
H304        H  0.10365880  0.68466410  0.07392059     0.10200
H305        H  0.05056289  0.51823891  0.06902437     0.07800
H306        H  0.00737315  0.59443817  0.02657578     0.07600
C307        C  0.34764176  0.37649138  0.83433661     0.04600
C308        C  0.29999227  0.35176328  0.84465086    -0.11500
C309        C  0.25485077  0.35370786  0.83851789     0.02100
C310        C  0.25795106  0.38214538  0.82226544    -0.10000
C311        C  0.30582773  0.40775757  0.81208078     0.04600
C312        C  0.35042762  0.40471160  0.81808086    -0.09500
H313        H  0.29762165  0.33005198  0.85729887     0.10200
H314        H  0.22294656  0.38327958  0.81730802     0.07800
H315        H  0.38670433  0.42298013  0.80975129     0.07600
C316        C  0.95688671  0.19657461  0.87884305     0.04600
C317        C  0.95566555  0.16685896  0.89447880    -0.11500
C318        C  0.00239574  0.16827699  0.90068148     0.02100
C319        C  0.05023706  0.19805633  0.89085333    -0.10000
C320        C  0.05187323  0.22719328  0.87504490     0.04600
C321        C  0.00513100  0.22655527  0.86904831    -0.09500
H322        H  0.91851909  0.14350176  0.90208264     0.10200
H323        H  0.08674263  0.20004580  0.89588968     0.07800
H324        H  0.00666228  0.25034027  0.85712006     0.07600
O325        O  0.70837450  0.23608049  0.80893181    -0.78600
O326        O  0.48347580  0.20024484  0.87292646    -0.80200
O327        O  0.57715581  0.12282295  0.84014813    -0.77200
O328        O  0.54055906  0.23371777  0.80994579    -0.75600
O329        O  0.57959291  0.32477279  0.80930208    -0.77400
O330        O  0.62199146  0.12608524  0.86709021    -0.78300
O331        O  0.48743851  0.15844461  0.84624429    -0.79600
O332        O  0.61684703  0.18735985  0.80772725    -0.79900
Eu333      Eu  0.58083248  0.20797966  0.83535186     2.39200
O334        O  0.57191941  0.27905912  0.84627800    -0.87400
O335        O  0.66187015  0.21750690  0.84643459    -0.91000
C336        C  0.66380286  0.20135588  0.80125149     1.03700
C337        C  0.46272737  0.16243878  0.86066577     1.03500
C338        C  0.59623491  0.10289095  0.85193527     1.03400
C339        C  0.54649428  0.27761485  0.80318230     1.01300
H340        H  0.55323064  0.17200629  0.87308643     0.31000
O341        O  0.58078237  0.20592256  0.86836331    -0.99800
H342        H  0.65212111  0.28898143  0.81086253     0.31100
O343        O  0.65241775  0.28868980  0.82438241    -1.02400
O344        O  0.59725481  0.33947755  0.90590249    -0.79600
O345        O  0.82145363  0.37460970  0.84102046    -0.79100
O346        O  0.60229659  0.18338808  0.90651024    -0.77600
O347        O  0.56555383  0.37047956  0.84192395    -0.80900
O348        O  0.70814035  0.39867108  0.80930193    -0.78800
O349        O  0.73829426  0.20498405  0.87319837    -0.77400
O350        O  0.76244650  0.34520358  0.90565045    -0.78900
O351        O  0.73931018  0.45882004  0.87244236    -0.80800
O352        O  0.72091401  0.25420397  0.90648297    -0.77600
O353        O  0.68830501  0.45211822  0.84678777    -0.80300
O354        O  0.55209082  0.22428796  0.90702659    -0.76000
O355        O  0.78074553  0.25091463  0.84664718    -0.76000
O356        O  0.75731948  0.35649315  0.80855483    -0.75700
O357        O  0.52176947  0.31939892  0.86744736    -0.79200
O358        O  0.68875771  0.39070157  0.90577618    -0.78600
O359        O  0.81779991  0.41931069  0.86685933    -0.76900
Eu360      Eu  0.57196243  0.27807445  0.87903589     2.39800
Eu361      Eu  0.73344732  0.29726369  0.83551336     2.39600
Eu362      Eu  0.66260248  0.21771348  0.87923844     2.38400
Eu363      Eu  0.64325443  0.36006121  0.83536260     2.39900
Eu364      Eu  0.72533358  0.36989820  0.87875178     2.39800
O365        O  0.72442911  0.36915058  0.84600295    -0.91300
O366        O  0.65382990  0.28929608  0.88961711    -0.90200
C367        C  0.64246525  0.37520648  0.91301762     1.03800
C368        C  0.84196030  0.41430436  0.85246595     1.02500
C369        C  0.56768818  0.19355839  0.91408702     1.01900
C370        C  0.52628720  0.34987777  0.85362532     1.04000
C371        C  0.74413647  0.38984092  0.80209325     1.02900
C372        C  0.77620763  0.22190947  0.86104338     1.01700
C373        C  0.75341745  0.30085200  0.91312458     1.01800
C374        C  0.71981223  0.47801836  0.86054473     1.04400
H375        H  0.76925287  0.30491307  0.87303603     0.31800
O376        O  0.73519534  0.29885347  0.86839790    -1.03500
H377        H  0.63685963  0.38723452  0.87306699     0.33800
O378        O  0.64276967  0.35950872  0.86829603    -1.06100
O379        O  0.88258424  0.90715556  0.97410504    -0.78600
O380        O  0.07475280  0.87302530  0.03808691    -0.80200
O381        O  0.04356595  0.90306306  0.97388562    -0.77200
O382        O  0.90740893  0.79223225  0.00566695    -0.75600
O383        O  0.86568581  0.79514433  0.03243669    -0.77400
O384        O  0.09538226  0.99374461  0.97331892    -0.78300
O385        O  0.02408544  0.83126948  0.01213102    -0.79600
O386        O  0.92507331  0.85834978  0.97332799    -0.79900
Eu387      Eu  0.98282310  0.88088450  0.00044043     2.39200
O388        O  0.98437200  0.87912565  0.03322217    -0.87400
O389        O  0.99184226  0.96091822  0.98960055    -0.91000
C390        C  0.89197280  0.87178587  0.96680928     1.03700
C391        C  0.05334525  0.83421169  0.02623216     1.03500
C392        C  0.07974711  0.94704047  0.96653240     1.03400
C393        C  0.86975545  0.77085071  0.01786723     1.01300
H394        H  0.09284712  0.94374710  0.00659641     0.31000
O395        O  0.06502958  0.94989318  0.01125952    -0.99800
H396        H  0.87652555  0.86131974  0.00662273     0.31100
O397        O  0.91056062  0.88941568  0.01122965    -1.02400
O398        O  0.10201626  0.01491990  0.07051629    -0.79600
O399        O  0.90293629  0.04310725  0.00810767    -0.79100
O400        O  0.16316825  0.04250858  0.00756758    -0.77600
O401        O  0.93932888  0.85348828  0.07082066    -0.80900
O402        O  0.82464673  0.87516110  0.03848691    -0.78800
O403        O  0.04771308  0.06749285  0.97427568    -0.77400
O404        O  0.08092610  0.12982289  0.03722775    -0.78900
O405        O  0.93988000  0.01465722  0.07026449    -0.80800
O406        O  0.12464160  0.12220456  0.01170952    -0.77600
O407        O  0.88861143  0.92373483  0.07064061    -0.80300
O408        O  0.15933022  0.99740312  0.03436474    -0.76000
O409        O  0.95626284  0.03144809  0.97471202    -0.76000
O410        O  0.82831933  0.92494003  0.01314661    -0.75700
O411        O  0.03100535  0.89273894  0.07126840    -0.79200
O412        O  0.06426489  0.06820831  0.07001537    -0.78600
O413        O  0.95357959  0.08536641  0.03394215    -0.76900
Eu414      Eu  0.06550976  0.95116596  0.04421822     2.39800
Eu415      Eu  0.92019363  0.97012456  0.00077985     2.39600
Eu416      Eu  0.07413180  0.03048419  0.00047192     2.38400
Eu417      Eu  0.91324049  0.88829593  0.04401367     2.39900
Eu418      Eu  0.00294656  0.04115056  0.04383857     2.39800
O419        O  0.92190191  0.96911497  0.03349644    -0.91300
O420        O  0.07448364  0.03124411  0.03320957    -0.90200
C421        C  0.09557428  0.05302818  0.07691835     1.03800
C422        C  0.92120594  0.08046536  0.02057210     1.02500
C423        C  0.18427353  0.02650058  0.02011871     1.01900
C424        C  0.98398805  0.86157782  0.07793089     1.04000
C425        C  0.80389473  0.89438469  0.02719925     1.02900
C426        C  0.00317546  0.06183108  0.96785907     1.01700
C427        C  0.12042090  0.14833648  0.02556373     1.01800
C428        C  0.90291614  0.97027822  0.07728808     1.04400
H429        H  0.00857369  0.07546569  0.00674424     0.31800
O430        O  0.00316838  0.04167207  0.01112028    -1.03500
H431        H  0.99410776  0.96109346  0.06848789     0.33800
O432        O  0.99396273  0.96072307  0.05497494    -1.06100
O433        O  0.72527284  0.39868379  0.40415077    -0.78600
O434        O  0.69226852  0.16318332  0.34595624    -0.80200
O435        O  0.69332608  0.22761005  0.40507481    -0.77200
O436        O  0.82022420  0.32803839  0.36590912    -0.75600
O437        O  0.82282360  0.37317273  0.33928193    -0.77400
O438        O  0.60169649  0.18741537  0.40480859    -0.78300
O439        O  0.73960232  0.20759133  0.37215691    -0.79600
O440        O  0.76455800  0.34702893  0.40391447    -0.79900
Eu441      Eu  0.72748701  0.28429499  0.37763550     2.39200
O442        O  0.72664165  0.28220126  0.34484636    -0.87400
O443        O  0.65672629  0.29546957  0.38847124    -0.91000
C444        C  0.75705838  0.38376592  0.41095780     1.03700
C445        C  0.72202764  0.16869383  0.36034242     1.03500
C446        C  0.64669710  0.19564902  0.41188594     1.03400
C447        C  0.84403876  0.35608935  0.35129152     1.01300
H448        H  0.63939945  0.17865784  0.37249689     0.31000
O449        O  0.64509716  0.21208178  0.36756600    -0.99800
H450        H  0.77203329  0.39310427  0.37077031     0.31100
O451        O  0.73772222  0.36475795  0.36642337    -1.02400
O452        O  0.58254699  0.18264356  0.30820019    -0.79600
O453        O  0.62778025  0.42761537  0.36406290    -0.79100
O454        O  0.52602752  0.13081157  0.36711974    -0.77600
O455        O  0.75670396  0.32588098  0.30671194    -0.80900
O456        O  0.78214407  0.45556797  0.34353769    -0.78800
O457        O  0.55178875  0.26242696  0.40422005    -0.77400
O458        O  0.49091362  0.25697671  0.34471278    -0.78900
O459        O  0.61673141  0.35603526  0.30561142    -0.80800
O460        O  0.48474644  0.20962984  0.37120538    -0.77600
O461        O  0.70820232  0.39675936  0.30655539    -0.80300
O462        O  0.57027562  0.12151542  0.34211315    -0.76000
O463        O  0.60103444  0.35351382  0.40260730    -0.76000
O464        O  0.74182636  0.46434590  0.36982650    -0.75700
O465        O  0.70788117  0.23480177  0.30838025    -0.79200
O466        O  0.54591907  0.23696256  0.30741398    -0.78600
O467        O  0.57649170  0.38236288  0.33859870    -0.76900
Eu468      Eu  0.64514416  0.20974868  0.33472932     2.39800
Eu469      Eu  0.66638326  0.37581761  0.37699272     2.39600
Eu470      Eu  0.57473225  0.22370688  0.37807976     2.38400
Eu471      Eu  0.73454199  0.36209613  0.33354923     2.39900
Eu472      Eu  0.58332254  0.30135738  0.33359231     2.39800
O473        O  0.66454991  0.37345617  0.34415195    -0.91300
O474        O  0.57413464  0.22136425  0.34522340    -0.90200
C475        C  0.55176219  0.19843628  0.30104532     1.03800
C476        C  0.59772848  0.42273056  0.34990568     1.02500
C477        C  0.53124267  0.10342983  0.35385966     1.01900
C478        C  0.74294512  0.27893329  0.30068602     1.04000
C479        C  0.77898526  0.48265360  0.35732549     1.02900
C480        C  0.56455468  0.30943127  0.40999060     1.01700
C481        C  0.46519909  0.22778060  0.35885256     1.01800
C482        C  0.66365832  0.38772990  0.29895497     1.04400
H483        H  0.55663960  0.31076171  0.37087563     0.31800
O484        O  0.58465183  0.30449424  0.36650001    -1.03500
H485        H  0.65325447  0.28850292  0.30960334     0.33800
O486        O  0.65369158  0.28954257  0.32311645    -1.06100
O487        O  0.40884907  0.78987836  0.70573919    -0.78600
O488        O  0.37773783  0.56771614  0.64030864    -0.80200
O489        O  0.49760979  0.70597961  0.67415142    -0.77200
O490        O  0.38296115  0.73198210  0.64183724    -0.75600
O491        O  0.29123639  0.69025709  0.64107464    -0.77400
O492        O  0.49390490  0.65756964  0.70000837    -0.78300
O493        O  0.42706995  0.65874117  0.64019721    -0.79600
O494        O  0.45416699  0.78777246  0.67971819    -0.79900
Eu495      Eu  0.40863461  0.69471816  0.66831752     2.39200
O496        O  0.32770053  0.62349435  0.65733701    -0.87400
O497        O  0.40846451  0.69338336  0.70118411    -0.91000
C498        C  0.44747873  0.81172223  0.69385052     1.03700
C499        C  0.41198367  0.61264276  0.63291478     1.03500
C500        C  0.51844944  0.68748259  0.68583059     1.03400
C501        C  0.33807277  0.72288810  0.63448759     1.01300
H502        H  0.42732314  0.60696294  0.67329297     0.31000
O503        O  0.39949900  0.61275541  0.67823852    -0.99800
H504        H  0.34155329  0.73653491  0.67511497     0.31100
O505        O  0.33661848  0.70283687  0.67946812    -1.02400
O506        O  0.23934546  0.45384958  0.67194064    -0.79600
O507        O  0.27400776  0.67199725  0.73941221    -0.79100
O508        O  0.40869534  0.53367525  0.70552413    -0.77600
O509        O  0.22048045  0.57166343  0.64051435    -0.80900
O510        O  0.23993961  0.70413400  0.67551020    -0.78800
O511        O  0.44304302  0.67795596  0.73681980    -0.77400
O512        O  0.27423663  0.50954848  0.73668630    -0.78900
O513        O  0.15667988  0.53448213  0.70545519    -0.80800
O514        O  0.36609086  0.55514586  0.73860812    -0.77600
O515        O  0.16342637  0.58570847  0.68007804    -0.80300
O516        O  0.35838758  0.49171719  0.67949247    -0.76000
O517        O  0.40071872  0.72675402  0.73821671    -0.76000
O518        O  0.28537095  0.74536782  0.70237186    -0.75700
O519        O  0.26316356  0.52318036  0.63903467    -0.79200
O520        O  0.19794726  0.45544478  0.69904133    -0.78600
O521        O  0.22125119  0.58100449  0.73843531    -0.76900
Eu522      Eu  0.31762047  0.54217422  0.66727744     2.39800
Eu523      Eu  0.33540036  0.70042632  0.71241687     2.39600
Eu524      Eu  0.40057638  0.61275873  0.71123051     2.38400
Eu525      Eu  0.25558447  0.63118314  0.66811184     2.39900
Eu526      Eu  0.24644593  0.54767341  0.71116406     2.39800
O527        O  0.25531607  0.62882409  0.70096948    -0.91300
O528        O  0.31912046  0.54089770  0.70007674    -0.90200
C529        C  0.20124323  0.43227324  0.68404420     1.03800
C530        C  0.23639992  0.62699698  0.74580734     1.02500
C531        C  0.38727950  0.49459110  0.69377035     1.01900
C532        C  0.23092116  0.53787214  0.63250344     1.04000
C533        C  0.25547570  0.74078356  0.68810611     1.02900
C534        C  0.43566002  0.71457425  0.74408786     1.01700
C535        C  0.31912706  0.52024781  0.74445160     1.01800
C536        C  0.13738478  0.55458058  0.69382222     1.04400
H537        H  0.32796142  0.61945971  0.73611782     0.31800
O538        O  0.32755428  0.61973627  0.72258175    -1.03500
H539        H  0.21092147  0.52270737  0.67325034     0.33800
O540        O  0.24493402  0.54998746  0.67821033    -1.06100
O541        O  0.28704635  0.51607423  0.14148205    -0.78600
O542        O  0.48454063  0.75679618  0.19923444    -0.80200
O543        O  0.42320375  0.69048135  0.13896277    -0.77200
O544        O  0.45102634  0.59146623  0.17880136    -0.75600
O545        O  0.40679054  0.54500774  0.20496495    -0.77400
O546        O  0.37136037  0.72996497  0.13928379    -0.78300
O547        O  0.49262265  0.71279187  0.17390461    -0.79600
O548        O  0.37849333  0.57000407  0.14222110    -0.79900
Eu549      Eu  0.40315119  0.63633912  0.16719550     2.39200
O550        O  0.40286726  0.63833253  0.20005470    -0.87400
O551        O  0.32080691  0.62374529  0.15565904    -0.91000
C552        C  0.33472485  0.53103715  0.13548265     1.03700
C553        C  0.51130058  0.75182827  0.18570035     1.03500
C554        C  0.40778983  0.72178889  0.13220243     1.03400
C555        C  0.44543697  0.56173746  0.19306252     1.01300
H556        H  0.41950675  0.74118645  0.17207703     0.31000
O557        O  0.39165901  0.70757004  0.17692420    -0.99800
H558        H  0.33846596  0.52842626  0.17426829     0.31100
O559        O  0.33208650  0.55643981  0.17835653    -1.02400
O560        O  0.35318335  0.73307515  0.23567960    -0.79600
O561        O  0.15817583  0.49381577  0.17967277    -0.79100
O562        O  0.35393924  0.78814371  0.17645212    -0.77600
O563        O  0.39033368  0.59748337  0.23773654    -0.80900
O564        O  0.28787768  0.46480484  0.20055257    -0.78800
O565        O  0.24795405  0.65616895  0.13964061    -0.77400
O566        O  0.19082624  0.66274409  0.19845363    -0.78900
O567        O  0.21632042  0.55968130  0.23760725    -0.80800
O568        O  0.23362106  0.70767321  0.17180045    -0.77600
O569        O  0.26743486  0.51957071  0.23711659    -0.80300
O570        O  0.40436471  0.79714730  0.20246084    -0.76000
O571        O  0.20689821  0.56513823  0.14132103    -0.76000
O572        O  0.23734710  0.45545547  0.17448233    -0.75700
O573        O  0.42952398  0.68817934  0.23706824    -0.79200
O574        O  0.26166934  0.68145480  0.23583505    -0.78600
O575        O  0.14925544  0.53991940  0.20414763    -0.76900
Eu576      Eu  0.39118643  0.70902116  0.20976531     2.39800
Eu577      Eu  0.24953461  0.54322036  0.16711346     2.39600
Eu578      Eu  0.30950399  0.69454943  0.16590675     2.38400
Eu579      Eu  0.33066139  0.55788141  0.21101906     2.39900
Eu580      Eu  0.23797605  0.61721096  0.21003535     2.39800
O581        O  0.24869889  0.54569761  0.19994936    -0.91300
O582        O  0.30915106  0.69762345  0.19868765    -0.90200
C583        C  0.30666139  0.71869028  0.24254049     1.03800
C584        C  0.13144551  0.49937746  0.19309479     1.02500
C585        C  0.38509188  0.81550236  0.19015102     1.01900
C586        C  0.42160365  0.64425405  0.24451606     1.04000
C587        C  0.25753800  0.43773645  0.18669277     1.02900
C588        C  0.21382797  0.60886532  0.13398942     1.01700
C589        C  0.19578200  0.69156050  0.18399027     1.01800
C590        C  0.23118666  0.52780526  0.24432312     1.04400
H591        H  0.20388182  0.60733009  0.17259146     0.31800
O592        O  0.23810573  0.61372791  0.17719711    -1.03500
H593        H  0.31995052  0.62974269  0.23475834     0.33800
O594        O  0.31989136  0.62884919  0.22123565    -1.06100
O595        O  0.93127982  0.00314961  0.57156446    -0.78600
O596        O  0.16094917  0.04390004  0.50830294    -0.80200
O597        O  0.09254786  0.00522523  0.57414315    -0.77200
O598        O  0.07347177  0.12147564  0.54048665    -0.75600
O599        O  0.02878920  0.11931529  0.51364500    -0.77400
O600        O  0.05763947  0.91492983  0.57243850    -0.78300
O601        O  0.15283859  0.08339725  0.53497461    -0.79600
O602        O  0.02270335  0.05436082  0.57302173    -0.79900
Eu603      Eu  0.06040236  0.03274314  0.54627159     2.39200
O604        O  0.06233577  0.03459242  0.51334184    -0.87400
O605        O  0.98889508  0.95105661  0.55585967    -0.91000
C606        C  0.97534961  0.03945113  0.57922376     1.03700
C607        C  0.17905292  0.08162843  0.52063334     1.03500
C608        C  0.08547765  0.96037051  0.58054488     1.03400
C609        C  0.05759278  0.14327000  0.52825665     1.01300
H610        H  0.10829076  0.97119509  0.53945665     0.31000
O611        O  0.07431632  0.96506237  0.53461433    -0.99800
H612        H  0.97287852  0.05125928  0.53958119     0.31100
O613        O  0.97919858  0.02368974  0.53486089    -1.02400
O614        O  0.04719394  0.90137064  0.47484808    -0.79600
O615        O  0.81733087  0.86848152  0.53757976    -0.79100
O616        O  0.07959939  0.87095781  0.53804312    -0.77600
O617        O  0.04653913  0.06452726  0.47571795    -0.80900
O618        O  0.90447610  0.03689079  0.50759369    -0.78800
O619        O  0.94080166  0.84522579  0.57086757    -0.77400
O620        O  0.90871858  0.78402397  0.50703164    -0.78900
O621        O  0.88539208  0.90018174  0.47390991    -0.80800
O622        O  0.95902375  0.79148573  0.53294249    -0.77600
O623        O  0.92307344  0.99114247  0.47479805    -0.80300
O624        O  0.12187611  0.92040008  0.51212419    -0.76000
O625        O  0.88555150  0.88089848  0.57090521    -0.76000
O626        O  0.85869033  0.98446372  0.53259127    -0.75700
O627        O  0.09756504  0.02447880  0.47466685    -0.79200
O628        O  0.95563183  0.84988281  0.47399323    -0.78600
O629        O  0.82465282  0.82647514  0.51157472    -0.76900
Eu630      Eu  0.07327545  0.96483022  0.50153415     2.39800
Eu631      Eu  0.90787885  0.94162460  0.54464809     2.39600
Eu632      Eu  0.00236296  0.88288977  0.54443602     2.38400
Eu633      Eu  0.98236377  0.02623158  0.50193683     2.39900
Eu634      Eu  0.91943819  0.87269569  0.50093986     2.39800
O635        O  0.91003605  0.94387662  0.51185837    -0.91300
O636        O  0.00171433  0.88316228  0.51164783    -0.90200
C637        C  0.00268674  0.86471348  0.46747008     1.03800
C638        C  0.79750647  0.83114153  0.52515255     1.02500
C639        C  0.11791995  0.88998791  0.52593129     1.01900
C640        C  0.08311812  0.05695607  0.46829890     1.04000
C641        C  0.86441485  0.01607813  0.51894642     1.02900
C642        C  0.90237958  0.85071118  0.57760988     1.01700
C643        C  0.92879107  0.76532305  0.51898864     1.01800
C644        C  0.89260791  0.94493790  0.46744619     1.04400
H645        H  0.89121545  0.83707508  0.53814590     0.31800
O646        O  0.91961567  0.87114296  0.53377857    -1.03500
H647        H  0.99217394  0.95550654  0.47724306     0.33800
O648        O  0.99166523  0.95489287  0.49076259    -1.06100
C649        C  0.98330757  0.15087479  0.93477099     0.25100
C650        C  0.00217916  0.14088268  0.91797580    -0.23000
C651        C  0.02216651  0.10559620  0.91787062     0.20000
C652        C  0.02378257  0.08100669  0.93437162     0.25000
C653        C  0.00528176  0.09117497  0.95108507    -0.22900
C654        C  0.98443025  0.12569694  0.95124582     0.19900
F655        F  0.96553679  0.13514004  0.96735070    -0.12900
F656        F  0.96474704  0.18563868  0.93526369    -0.15300
F657        F  0.04060668  0.04498512  0.93387818    -0.15300
F658        F  0.03849054  0.09368772  0.90167329    -0.12900
C659        C  0.88437451  0.21460457  0.88799319     0.25100
C660        C  0.90902201  0.20022583  0.87403441    -0.23000
C661        C  0.88840884  0.19082551  0.85566948     0.20000
C662        C  0.84441714  0.19699649  0.85126351     0.25000
C663        C  0.82010270  0.21159084  0.86526463    -0.22900
C664        C  0.84017168  0.21983979  0.88369344     0.19900
F665        F  0.81873168  0.23581466  0.89742127    -0.12900
F666        F  0.90450861  0.22582359  0.90569511    -0.15300
F667        F  0.82522267  0.18819834  0.83345794    -0.15300
F668        F  0.91050690  0.17515392  0.84211071    -0.12900
C669        C  0.28055498  0.40819440  0.77876389     0.25100
C670        C  0.30914724  0.43637772  0.79475802    -0.23000
C671        C  0.34262049  0.49186581  0.79397338     0.20000
C672        C  0.34641816  0.51920072  0.77745719     0.25000
C673        C  0.31667260  0.49120533  0.76156155    -0.22900
C674        C  0.28437162  0.43549195  0.76221635     0.19900
F675        F  0.25804874  0.40752555  0.74666088    -0.12900
F676        F  0.25017709  0.35420707  0.77907996    -0.15300
F677        F  0.37809484  0.57308573  0.77711296    -0.15300
F678        F  0.37101771  0.51948068  0.80929776    -0.12900
C679        C  0.38558625  0.31961284  0.84416231     0.25100
C680        C  0.39348648  0.37043806  0.84002008    -0.23000
C681        C  0.44550501  0.41500553  0.84088596     0.20000
C682        C  0.48906651  0.40868839  0.84550724     0.25000
C683        C  0.48090684  0.35811831  0.85004041    -0.22900
C684        C  0.42882222  0.31365497  0.84945706     0.19900
F685        F  0.42023999  0.26391463  0.85292440    -0.12900
F686        F  0.33641486  0.27539951  0.84226482    -0.15300
F687        F  0.53910312  0.45193076  0.84559610    -0.15300
F688        F  0.45408087  0.46467209  0.83735592    -0.12900
C689        C  0.17512968  0.34617488  0.85519062     0.25100
C690        C  0.20333926  0.32203644  0.84820634    -0.23000
C691        C  0.18175363  0.26682108  0.85021145     0.20000
C692        C  0.13224117  0.23597538  0.85883439     0.25000
C693        C  0.10333640  0.25981111  0.86542623    -0.22900
C694        C  0.12521233  0.31515415  0.86368655     0.19900
F695        F  0.09899792  0.33924354  0.87074804    -0.12900
F696        F  0.19661910  0.39982997  0.85422288    -0.15300
F697        F  0.11208968  0.18263028  0.86051775    -0.15300
F698        F  0.20819283  0.24260860  0.84344444    -0.12900
C699        C  0.20254819  0.63940244  0.10278147     0.25100
C700        C  0.17968708  0.60544071  0.11820917    -0.23000
C701        C  0.12384151  0.57144128  0.11902022     0.20000
C702        C  0.09135654  0.57094371  0.10440432     0.25000
C703        C  0.11433917  0.60511481  0.08903591    -0.22900
C704        C  0.17008144  0.63922058  0.08828042     0.19900
F705        F  0.19322049  0.67077216  0.07313564    -0.12900
F706        F  0.25652276  0.67191495  0.10158176    -0.15300
F707        F  0.03747902  0.53742517  0.10525668    -0.15300
F708        F  0.10066850  0.54021445  0.13422273    -0.12900
C709        C  0.10411601  0.79020259  0.03723425     0.25100
C710        C  0.05696899  0.78658244  0.03018552    -0.23000
C711        C  0.01000854  0.73650371  0.02885566     0.20000
C712        C  0.00957824  0.69093032  0.03509071     0.25000
C713        C  0.05671854  0.69405679  0.04212014    -0.22900
C714        C  0.10438932  0.74410493  0.04273051     0.19900
F715        F  0.15130643  0.74851478  0.04859608    -0.12900
F716        F  0.14974107  0.83825581  0.03881898    -0.15300
F717        F  0.96210955  0.64428819  0.03520403    -0.15300
F718        F  0.96320782  0.73201960  0.02274038    -0.12900
C719        C  0.94021541  0.21871854  0.01903414     0.25100
C720        C  0.89234355  0.21025964  0.01057974    -0.23000
C721        C  0.85131033  0.15738391  0.00698320     0.20000
C722        C  0.85959875  0.11448455  0.01062456     0.25000
C723        C  0.90819591  0.12355769  0.01861699    -0.22900
C724        C  0.94754473  0.17600665  0.02330165     0.19900
F725        F  0.99523857  0.18673482  0.03086198    -0.12900
F726        F  0.98189197  0.26868651  0.02212959    -0.15300
F727        F  0.82023892  0.06423884  0.00630055    -0.15300
F728        F  0.80324144  0.14714867  0.99992417    -0.12900
C729        C  0.86260632  0.34433513  0.94993724     0.25100
C730        C  0.83810240  0.30246402  0.96298426    -0.23000
C731        C  0.78533243  0.26122240  0.95974658     0.20000
C732        C  0.75775438  0.26114864  0.94367298     0.25000
C733        C  0.78220739  0.30274573  0.93052434    -0.22900
C734        C  0.83467353  0.34470280  0.93393127     0.19900
F735        F  0.85944374  0.38540782  0.92155775    -0.12900
F736        F  0.91387032  0.38449019  0.95251796    -0.15300
F737        F  0.70636031  0.22103000  0.94130231    -0.15300
F738        F  0.75959674  0.22188495  0.97255421    -0.12900
C739        C  0.91202876  0.42740924  0.02449269     0.25100
C740        C  0.93832127  0.39910826  0.02003551    -0.23000
C741        C  0.99283911  0.42081730  0.02456088     0.20000
C742        C  0.02115762  0.47107566  0.03279385     0.25000
C743        C  0.99487192  0.49935590  0.03727736    -0.22900
C744        C  0.94000107  0.47700575  0.03329785     0.19900
F745        F  0.91334171  0.50259086  0.03835742    -0.12900
F746        F  0.85911886  0.40658015  0.02051098    -0.15300
F747        F  0.07456693  0.49271707  0.03608313    -0.15300
F748        F  0.01909444  0.39415236  0.02045045    -0.12900
C749        C  0.08633625  0.72603374  0.19042612     0.25100
C750        C  0.06591281  0.71862637  0.17209057    -0.23000
C751        C  0.08990666  0.70467506  0.15776069     0.20000
C752        C  0.13289023  0.69717089  0.16170693     0.25000
C753        C  0.15291382  0.70359340  0.18007911    -0.22900
C754        C  0.12960372  0.71835166  0.19441855     0.19900
F755        F  0.14911305  0.72584760  0.21216404    -0.12900
F756        F  0.06481870  0.74124599  0.20433630    -0.15300
F757        F  0.15313303  0.68089468  0.14767468    -0.15300
F758        F  0.07027581  0.69618124  0.13999215    -0.12900
C759        C  0.99616312  0.79452347  0.09514599     0.25100
C760        C  0.98130717  0.83368791  0.09516489    -0.23000
C761        C  0.96508178  0.84701727  0.11182621     0.20000
C762        C  0.96261942  0.82042727  0.12837961     0.25000
C763        C  0.97671844  0.78065038  0.12832058    -0.22900
C764        C  0.99357430  0.76783763  0.11165585     0.19900
F765        F  0.00653140  0.72881204  0.11136438    -0.12900
F766        F  0.01236040  0.78171201  0.07909933    -0.15300
F767        F  0.94774540  0.83418931  0.14451484    -0.15300
F768        F  0.95335095  0.88686403  0.11211995    -0.12900
C769        C  0.71104851  0.49398338  0.26159985     0.25100
C770        C  0.66999454  0.46961499  0.24806421    -0.23000
C771        C  0.62765246  0.41749107  0.25119916     0.20000
C772        C  0.62529880  0.39106440  0.26780153     0.25000
C773        C  0.66633797  0.41545401  0.28132267    -0.22900
C774        C  0.70955580  0.46687888  0.27793337     0.19900
F775        F  0.74930187  0.49196009  0.29081450    -0.12900
F776        F  0.75169048  0.54491558  0.25941721    -0.15300
F777        F  0.58299986  0.34134337  0.27051624    -0.15300
F778        F  0.58879342  0.39175820  0.23806992    -0.12900
C779        C  0.54551581  0.53981022  0.22006144     0.25100
C780        C  0.57684561  0.53582713  0.20573652    -0.23000
C781        C  0.56229013  0.53703114  0.18693946     0.20000
C782        C  0.51887805  0.54430734  0.18262771     0.25000
C783        C  0.48813252  0.54882030  0.19702552    -0.22900
C784        C  0.50119981  0.54505894  0.21576152     0.19900
F785        F  0.47289836  0.54954316  0.23013320    -0.12900
F786        F  0.55918049  0.54150737  0.23836435    -0.15300
F787        F  0.50673510  0.54650490  0.16438746    -0.15300
F788        F  0.58980084  0.53076284  0.17270271    -0.12900
C789        C  0.81426681  0.63457519  0.20627986     0.25100
C790        C  0.77085251  0.59393579  0.19635349    -0.23000
C791        C  0.77739417  0.58392020  0.17760017     0.20000
C792        C  0.82707925  0.61430683  0.16886734     0.25000
C793        C  0.87058522  0.65484466  0.17887794    -0.22900
C794        C  0.86387444  0.66470223  0.19760914     0.19900
F795        F  0.90512732  0.70448174  0.20732553    -0.12900
F796        F  0.80824688  0.64553359  0.22430174    -0.15300
F797        F  0.83307715  0.60359186  0.15080551    -0.15300
F798        F  0.73606602  0.54396220  0.16796263    -0.12900
C799        C  0.37912550  0.83223814  0.59848825     0.25100
C800        C  0.34118680  0.80552273  0.58420128    -0.23000
C801        C  0.30261917  0.75145694  0.58649103     0.20000
C802        C  0.30213755  0.72449689  0.60277142     0.25000
C803        C  0.33982763  0.75133834  0.61714378    -0.22900
C804        C  0.37826787  0.80545451  0.61487172     0.19900
F805        F  0.41388993  0.83285692  0.62875787    -0.12900
F806        F  0.41630973  0.88469036  0.59673863    -0.15300
F807        F  0.26573944  0.67170243  0.60427012    -0.15300
F808        F  0.26636400  0.72436865  0.57272558    -0.12900
C809        C  0.21576498  0.92232713  0.52614701     0.25100
C810        C  0.16308100  0.88037482  0.52897018    -0.23000
C811        C  0.15506670  0.83197244  0.53627750     0.20000
C812        C  0.19884243  0.82539769  0.54045773     0.25000
C813        C  0.25172434  0.86808193  0.53834977    -0.22900
C814        C  0.25950655  0.91671533  0.53108058     0.19900
F815        F  0.30931693  0.96012307  0.52959828    -0.12900
F816        F  0.22514343  0.97032307  0.51975545    -0.15300
F817        F  0.18926855  0.77701401  0.54645735    -0.15300
F818        F  0.10490786  0.79092863  0.53947055    -0.12900
C819        C  0.68648807  0.19138690  0.44257504     0.25100
C820        C  0.64562191  0.16651619  0.42899603    -0.23000
C821        C  0.60545790  0.11316492  0.43157887     0.20000
C822        C  0.60563501  0.08545562  0.44756085     0.25000
C823        C  0.64590137  0.11063337  0.46130202    -0.22900
C824        C  0.68641328  0.16380782  0.45862016     0.19900
F825        F  0.72520467  0.18956242  0.47176960    -0.12900
F826        F  0.72607340  0.24287813  0.44050870    -0.15300
F827        F  0.56717420  0.03344399  0.44936121    -0.15300
F828        F  0.56723839  0.08713513  0.41828196    -0.12900
C829        C  0.76750780  0.98299225  0.51396979     0.25100
C830        C  0.82007255  0.02624709  0.51518548    -0.23000
C831        C  0.82990242  0.07773239  0.51106173     0.20000
C832        C  0.78743179  0.08593831  0.50620440     0.25000
C833        C  0.73460917  0.04255530  0.50518957    -0.22900
C834        C  0.72526560  0.99092970  0.50897896     0.19900
F835        F  0.67542233  0.94765115  0.50710350    -0.12900
F836        F  0.75748458  0.93246961  0.51648295    -0.15300
F837        F  0.79784869  0.13626428  0.50276437    -0.15300
F838        F  0.88056280  0.12004447  0.51189621    -0.12900
C839        C  0.52540276  0.93431083  0.51649088     0.25100
C840        C  0.54324364  0.98873634  0.51364719    -0.23000
C841        C  0.51101185  0.00965050  0.51945479     0.20000
C842        C  0.46184830  0.97680189  0.52805221     0.25000
C843        C  0.44397192  0.92241957  0.53085932    -0.22900
C844        C  0.47611059  0.90141263  0.52505574     0.19900
F845        F  0.45919276  0.84883170  0.52730625    -0.12900
F846        F  0.55505328  0.91267689  0.51052488    -0.15300
F847        F  0.43231014  0.99845665  0.53412008    -0.15300
F848        F  0.52774022  0.06218830  0.51720498    -0.12900
C849        C  0.23976479  0.79828245  0.66618782     0.25100
C850        C  0.24132987  0.78263176  0.68474633    -0.23000
C851        C  0.23262890  0.80949938  0.69951614     0.20000
C852        C  0.22256379  0.85122778  0.69574648     0.25000
C853        C  0.22253134  0.86765704  0.67716948    -0.22900
C854        C  0.23173255  0.84086723  0.66250008     0.19900
F855        F  0.23530769  0.85729236  0.64448745    -0.12900
F856        F  0.24856967  0.77399861  0.65145505    -0.15300
F857        F  0.21211862  0.87500418  0.71021611    -0.15300
F858        F  0.23295138  0.79480689  0.71753417    -0.12900
C859        C  0.11771838  0.97355123  0.63232292     0.25100
C860        C  0.15203258  0.95225448  0.63344764    -0.23000
C861        C  0.16301631  0.93235276  0.61707619     0.20000
C862        C  0.14194266  0.93584818  0.59983377     0.25000
C863        C  0.10996675  0.95967427  0.59859603    -0.22900
C864        C  0.09664999  0.97693736  0.61503760     0.19900
F865        F  0.06081143  0.99415829  0.61450147    -0.12900
F866        F  0.10354637  0.98979027  0.64805117    -0.15300
F867        F  0.15307362  0.91625920  0.58426829    -0.15300
F868        F  0.19541020  0.91088007  0.61763505    -0.12900
C869        C  0.34393905  0.35128318  0.70363401     0.25100
C870        C  0.39210651  0.35421501  0.70933437    -0.23000
C871        C  0.43984211  0.40425270  0.70926528     0.20000
C872        C  0.43889074  0.45040585  0.70415219     0.25000
C873        C  0.39086878  0.44684480  0.69803870    -0.22900
C874        C  0.34352532  0.39690241  0.69777782     0.19900
F875        F  0.29588360  0.39275635  0.69301945    -0.12900
F876        F  0.29656425  0.30470628  0.70463356    -0.15300
F877        F  0.48474500  0.49843535  0.70516631    -0.15300
F878        F  0.48749227  0.40849501  0.71402090    -0.12900
C879        C  0.47126940  0.28419961  0.78873392     0.25100
C880        C  0.51350596  0.27349044  0.78697779    -0.23000
C881        C  0.52400212  0.25822119  0.76960352     0.20000
C882        C  0.49258260  0.25360447  0.75404975     0.25000
C883        C  0.45053997  0.26461649  0.75571133    -0.22900
C884        C  0.43951288  0.27922476  0.77317397     0.19900
F885        F  0.39729632  0.28737049  0.77517503    -0.12900
F886        F  0.46042856  0.29869859  0.80551553    -0.15300
F887        F  0.50378832  0.23940657  0.73726938    -0.15300
F888        F  0.56564746  0.24922130  0.76764308    -0.12900
C889        C  0.35589626  0.13095952  0.69752548     0.25100
C890        C  0.33061929  0.15919586  0.70337201    -0.23000
C891        C  0.27510988  0.13669526  0.70070555     0.20000
C892        C  0.24525718  0.08657548  0.69230967     0.25000
C893        C  0.27059352  0.05845375  0.68627642    -0.22900
C894        C  0.32625298  0.08126154  0.68885652     0.19900
F895        F  0.35220599  0.05614468  0.68250319    -0.12900
F896        F  0.40952768  0.15194473  0.70000596    -0.15300
F897        F  0.19136306  0.06493841  0.69043087    -0.15300
F898        F  0.24956693  0.16246400  0.70683128    -0.12900
C899        C  0.74574005  0.09904444  0.35100270     0.25100
C900        C  0.73274239  0.12510357  0.36487304    -0.23000
C901        C  0.72632093  0.10695716  0.38349082     0.20000
C902        C  0.73278228  0.06382665  0.38818499     0.25000
C903        C  0.74532540  0.03738284  0.37435026    -0.22900
C904        C  0.75194978  0.05544451  0.35571317     0.19900
F905        F  0.76493396  0.03113918  0.34212694    -0.12900
F906        F  0.75300867  0.11612033  0.33299159    -0.15300
F907        F  0.72435682  0.04640283  0.40617811    -0.15300
F908        F  0.71086165  0.12922867  0.39706494    -0.12900
C909        C  0.84801578  0.92736657  0.41697131     0.25100
C910        C  0.81251592  0.94739762  0.41731929    -0.23000
C911        C  0.80332694  0.96598004  0.43431981     0.20000
C912        C  0.82924497  0.96466837  0.45066866     0.25000
C913        C  0.86399857  0.94399747  0.45033904    -0.22900
C914        C  0.87375067  0.92592584  0.43339196     0.19900
F915        F  0.91002981  0.90927669  0.43259543    -0.12900
F916        F  0.85859288  0.91028098  0.40067645    -0.15300
F917        F  0.81987368  0.98288590  0.46693164    -0.15300
F918        F  0.76792384  0.98383691  0.43521924    -0.12900
C919        C  0.62881182  0.56253792  0.33805491     0.25100
C920        C  0.57718946  0.55608685  0.33628841    -0.23000
C921        C  0.53219644  0.50530956  0.33927566     0.20000
C922        C  0.53869893  0.46205513  0.34412532     0.25000
C923        C  0.59013295  0.46842093  0.34567989    -0.22900
C924        C  0.63514431  0.51898935  0.34251902     0.19900
F925        F  0.68527848  0.52575655  0.34312139    -0.12900
F926        F  0.67314180  0.61074867  0.33498759    -0.15300
F927        F  0.49477249  0.41434086  0.34784587    -0.15300
F928        F  0.48188536  0.49789041  0.33801274    -0.12900
C929        C  0.52611866  0.69035565  0.28310723     0.25100
C930        C  0.50348543  0.64567040  0.29510355    -0.23000
C931        C  0.45274227  0.60231344  0.29079343     0.20000
C932        C  0.42613078  0.60243613  0.27448398     0.25000
C933        C  0.44925139  0.64642183  0.26222800    -0.22900
C934        C  0.49897579  0.69096697  0.26694319     0.19900
F935        F  0.52232101  0.73439275  0.25563817    -0.12900
F936        F  0.57536976  0.73296254  0.28668868    -0.15300
F937        F  0.37705911  0.55956704  0.27087742    -0.15300
F938        F  0.42817844  0.56019122  0.30260547    -0.12900
C939        C  0.62370145  0.74814496  0.36749223     0.25100
C940        C  0.62362431  0.74497566  0.34789118    -0.23000
C941        C  0.65449677  0.79163401  0.33739734     0.20000
C942        C  0.68544438  0.84054961  0.34635849     0.25000
C943        C  0.68572055  0.84387439  0.36598158    -0.22900
C944        C  0.65423255  0.79725057  0.37647800     0.19900
F945        F  0.65219232  0.79936776  0.39543331    -0.12900
F946        F  0.59324185  0.70392128  0.37790149    -0.15300
F947        F  0.71657384  0.88436651  0.33585333    -0.15300
F948        F  0.65588483  0.78962253  0.31841785    -0.12900
C949        C  0.83960486  0.01733670  0.11333930     0.25100
C950        C  0.81756921  0.97427163  0.12600368    -0.23000
C951        C  0.82464817  0.93048105  0.12260685     0.20000
C952        C  0.85214415  0.92916460  0.10676568     0.25000
C953        C  0.87452434  0.97233065  0.09418086    -0.22900
C954        C  0.86837789  0.01664778  0.09773206     0.19900
F955        F  0.88893889  0.05880694  0.08584129    -0.12900
F956        F  0.83248194  0.05980683  0.11581815    -0.15300
F957        F  0.85789962  0.88596813  0.10404639    -0.15300
F958        F  0.80653972  0.88956435  0.13497209    -0.12900
C959        C  0.65805565  0.83511427  0.17274260     0.25100
C960        C  0.66303494  0.88579021  0.17089925    -0.23000
C961        C  0.61867458  0.89183834  0.17496097     0.20000
C962        C  0.57024731  0.84814678  0.18046273     0.25000
C963        C  0.56494840  0.79751128  0.18209391    -0.22900
C964        C  0.60915277  0.79114164  0.17825423     0.19900
F965        F  0.60500995  0.74260530  0.17997041    -0.12900
F966        F  0.70068217  0.82840637  0.16945559    -0.15300
F967        F  0.52722457  0.85459227  0.18300954    -0.15300
F968        F  0.62143568  0.93969006  0.17284231    -0.12900
C969        C  0.78549738  0.23778414  0.28199988     0.25100
C970        C  0.76971976  0.27617210  0.28368652    -0.23000
C971        C  0.78178620  0.31362655  0.26930614     0.20000
C972        C  0.80974687  0.31296665  0.25353486     0.25000
C973        C  0.82588396  0.27487592  0.25193049    -0.22900
C974        C  0.81352103  0.23719952  0.26621612     0.19900
F975        F  0.82983803  0.20074687  0.26508258    -0.12900
F976        F  0.77555959  0.20218027  0.29592729    -0.15300
F977        F  0.82007607  0.34874337  0.23963246    -0.15300
F978        F  0.76559550  0.35021608  0.27035805    -0.12900
C979        C  0.02629463  0.35929503  0.20483981     0.25100
C980        C  0.98124396  0.36450821  0.20842076    -0.23000
C981        C  0.98565510  0.41497394  0.20682402     0.20000
C982        C  0.03428746  0.45930773  0.20146150     0.25000
C983        C  0.07862095  0.45340286  0.19731663    -0.22900
C984        C  0.07430747  0.40324462  0.19920607     0.19900
F985        F  0.11784967  0.39760515  0.19676268    -0.12900
F986        F  0.02456790  0.31212817  0.20761415    -0.15300
F987        F  0.03802668  0.50776507  0.20022821    -0.15300
F988        F  0.94281250  0.42121707  0.21028667    -0.12900
C989        C  0.83690562  0.17152811  0.17933826     0.25100
C990        C  0.84194548  0.17340743  0.19892753    -0.23000
C991        C  0.82742304  0.12624253  0.20886923     0.20000
C992        C  0.80833283  0.07802479  0.19937704     0.25000
C993        C  0.80380497  0.07619644  0.17976160    -0.22900
C994        C  0.81804734  0.12333505  0.16982853     0.19900
F995        F  0.81201757  0.12243923  0.15094118    -0.12900
F996        F  0.84860620  0.21602526  0.16945144    -0.15300
F997        F  0.79530094  0.03333391  0.20935639    -0.15300
F998        F  0.83278725  0.12700456  0.22778476    -0.12900
C999        C  0.98766083  0.38702934  0.35615776     0.25100
C1000       C  0.99840739  0.37812738  0.33770564    -0.23000
C1001       C  0.95849806  0.36286210  0.32391136     0.20000
C1002       C  0.90892896  0.35716580  0.32842002     0.25000
C1003       C  0.89797883  0.36583313  0.34686996    -0.22900
C1004       C  0.93751370  0.38045939  0.36075658     0.19900
F1005       F  0.92782270  0.38899959  0.37864862    -0.12900
F1006       F  0.02594258  0.40259089  0.36964965    -0.15300
F1007       F  0.87057878  0.34053076  0.31489466    -0.15300
F1008       F  0.96668046  0.35128303  0.30621453    -0.12900
C1009       C  0.19417525  0.52570447  0.27607513     0.25100
C1010       C  0.20533959  0.49939472  0.26173667    -0.23000
C1011       C  0.19188896  0.44603405  0.26427073     0.20000
C1012       C  0.16618485  0.41898629  0.28062054     0.25000
C1013       C  0.15543403  0.44543959  0.29498374    -0.22900
C1014       C  0.17011652  0.49913614  0.29267727     0.19900
F1015       F  0.16194304  0.52606337  0.30664335    -0.12900
F1016       F  0.20791056  0.57762719  0.27422418    -0.15300
F1017       F  0.15013567  0.36640886  0.28218161    -0.15300
F1018       F  0.20207765  0.41954379  0.25068684    -0.12900
C1019       C  0.11751658  0.13818228  0.44801364     0.25100
C1020       C  0.11017750  0.08706441  0.45112485    -0.23000
C1021       C  0.12893866  0.06484720  0.43760863     0.20000
C1022       C  0.15357661  0.09278445  0.42123839     0.25000
C1023       C  0.16111787  0.14400930  0.41820327    -0.22900
C1024       C  0.14312368  0.16651209  0.43182332     0.19900
F1025       F  0.15157928  0.21667183  0.42971397    -0.12900
F1026       F  0.10131892  0.16154865  0.46090578    -0.15300
F1027       F  0.16869226  0.06904864  0.40810256    -0.15300
F1028       F  0.12216554  0.01536702  0.43994800    -0.12900
C1029       C  0.35726697  0.26157687  0.36737820     0.25100
C1030       C  0.31347932  0.21199002  0.37261102    -0.23000
C1031       C  0.31908869  0.16646438  0.37209062     0.20000
C1032       C  0.36819175  0.17086512  0.36735996     0.25000
C1033       C  0.41166931  0.22035620  0.36226165    -0.22900
C1034       C  0.40553372  0.26540467  0.36201649     0.19900
F1035       F  0.44760599  0.31395091  0.35765956    -0.12900
F1036       F  0.35437204  0.30685488  0.36823186    -0.15300
F1037       F  0.37304078  0.12678185  0.36765158    -0.15300
F1038       F  0.27680838  0.11755365  0.37597373    -0.12900
C1039       C  0.12063181  0.23872393  0.35828233     0.25100
C1040       C  0.17282294  0.26290557  0.36571206    -0.23000
C1041       C  0.20641546  0.31841042  0.36430438     0.20000
C1042       C  0.18841251  0.34925778  0.35532224     0.25000
C1043       C  0.13642104  0.32505620  0.34772135    -0.22900
C1044       C  0.10259850  0.26960465  0.34928919     0.19900
F1045       F  0.05272954  0.24520936  0.34156998    -0.12900
F1046       F  0.08770233  0.18511700  0.35930771    -0.15300
F1047       F  0.22141057  0.40286809  0.35430303    -0.15300
F1048       F  0.25631217  0.34283052  0.37200695    -0.12900
C1049       C  0.68498602  0.87334926  0.05559960     0.25100
C1050       C  0.65142429  0.87612923  0.04184102    -0.23000
C1051       C  0.66734927  0.88219157  0.02293214     0.20000
C1052       C  0.71638176  0.88681205  0.01798991     0.25000
C1053       C  0.74966636  0.88392053  0.03177759    -0.22900
C1054       C  0.73307603  0.87647427  0.05062101     0.19900
F1055       F  0.76495791  0.87576900  0.06454539    -0.12900
F1056       F  0.67303718  0.87076606  0.07409310    -0.15300
F1057       F  0.73146863  0.89463681  0.99973803    -0.15300
F1058       F  0.63557872  0.88373237  0.00917354    -0.12900
C1059       C  0.46425641  0.80813701  0.11652723     0.25100
C1060       C  0.43579011  0.75236336  0.11557077    -0.23000
C1061       C  0.43677406  0.72653647  0.09906303     0.20000
C1062       C  0.46663724  0.75631019  0.08370373     0.25000
C1063       C  0.49476087  0.81216196  0.08463563    -0.22900
C1064       C  0.49333651  0.83792489  0.10110959     0.19900
F1065       F  0.52132077  0.89192863  0.10239703    -0.12900
F1066       F  0.46529594  0.83358477  0.13263190    -0.15300
F1067       F  0.46732450  0.73085074  0.06782550    -0.15300
F1068       F  0.40767384  0.67272897  0.09766446    -0.12900
C1069       C  0.50897260  0.17490172  0.96265841     0.25100
C1070       C  0.50047003  0.12430619  0.96737867    -0.23000
C1071       C  0.51480328  0.09670032  0.95451715     0.20000
C1072       C  0.53700587  0.11925558  0.93722983     0.25000
C1073       C  0.54474242  0.16952251  0.93238582    -0.22900
C1074       C  0.53055139  0.19719345  0.94529318     0.19900
F1075       F  0.53872371  0.24651792  0.94132771    -0.12900
F1076       F  0.49744238  0.20330300  0.97503473    -0.15300
F1077       F  0.54926127  0.09109883  0.92500071    -0.15300
F1078       F  0.50580118  0.04705912  0.95841175    -0.12900
C1079       C  0.27662302  0.05312287  0.03188670     0.25100
C1080       C  0.23980212  0.03888870  0.01702312    -0.23000
C1081       C  0.25501200  0.03257949  0.99897536     0.20000
C1082       C  0.30655789  0.04180687  0.99565459     0.25000
C1083       C  0.34406929  0.05705195  0.01036950    -0.22900
C1084       C  0.32854863  0.06234263  0.02857385     0.19900
F1085       F  0.36382981  0.07723429  0.04305774    -0.12900
F1086       F  0.26247130  0.05856101  0.04952239    -0.15300
F1087       F  0.31907410  0.03380922  0.97808356    -0.15300
F1088       F  0.21891314  0.01459735  0.98467109    -0.12900
C1089       C  0.49579654  0.97471457  0.00967552     0.25100
C1090       C  0.48747991  0.01029134  0.02062139    -0.23000
C1091       C  0.49921198  0.01511352  0.03984107     0.20000
C1092       C  0.51907541  0.98471261  0.04801442     0.25000
C1093       C  0.52678101  0.94877527  0.03708363    -0.22900
C1094       C  0.51524018  0.94413284  0.01785558     0.19900
F1095       F  0.52085551  0.90850335  0.00714969    -0.12900
F1096       F  0.48375611  0.96863849  0.99111089    -0.15300
F1097       F  0.53126634  0.99057037  0.06656029    -0.15300
F1098       F  0.49240446  0.04991557  0.05057156    -0.12900
C1099       C  0.43850476  0.56728982  0.60876523     0.25100
C1100       C  0.43504980  0.61184546  0.61456447    -0.23000
C1101       C  0.45322976  0.65589359  0.60246018     0.20000
C1102       C  0.47531085  0.65582516  0.58514104     0.25000
C1103       C  0.48052604  0.61219542  0.57962370    -0.22900
C1104       C  0.46149852  0.56766831  0.59153700     0.19900
F1105       F  0.46660013  0.52506382  0.58680682    -0.12900
F1106       F  0.42101142  0.52385073  0.61993687    -0.15300
F1107       F  0.49057938  0.69810616  0.57355878    -0.15300
F1108       F  0.44851139  0.69876760  0.60713187    -0.12900
C1109       C  0.72602384  0.73536685  0.52375544     0.25100
C1110       C  0.74063902  0.78854751  0.52747129    -0.23000
C1111       C  0.70190219  0.79916669  0.53516863     0.20000
C1112       C  0.64951832  0.75756328  0.53861079     0.25000
C1113       C  0.63524867  0.70418663  0.53509927    -0.22900
C1114       C  0.67452992  0.69379659  0.52782019     0.19900
F1115       F  0.66430169  0.64305005  0.52559541    -0.12900
F1116       F  0.76279425  0.72304295  0.51735142    -0.15300
F1117       F  0.61287562  0.76966013  0.54537635    -0.15300
F1118       F  0.71463469  0.84970635  0.53952984    -0.12900
C1119       C  0.32211545  0.17229607  0.50485111     0.25100
C1120       C  0.32379695  0.22170860  0.50419559    -0.23000
C1121       C  0.27925286  0.22472113  0.51063362     0.20000
C1122       C  0.23369648  0.17928501  0.51706067     0.25000
C1123       C  0.23106561  0.12958006  0.51687658    -0.22900
C1124       C  0.27578572  0.12643209  0.51092665     0.19900
F1125       F  0.27462623  0.07909790  0.51099857    -0.12900
F1126       F  0.36528892  0.16838969  0.49962089    -0.15300
F1127       F  0.19049973  0.18329193  0.52222542    -0.15300
F1128       F  0.27834197  0.27103269  0.50972272    -0.12900
C1129       C  0.51479595  0.34806239  0.42620112     0.25100
C1130       C  0.53352514  0.31169568  0.42597049    -0.23000
C1131       C  0.51810459  0.27370668  0.44035381     0.20000
C1132       C  0.48508960  0.27241425  0.45482794     0.25000
C1133       C  0.46666492  0.30898685  0.45517315    -0.22900
C1134       C  0.48062228  0.34590154  0.44047536     0.19900
F1135       F  0.46042464  0.37930142  0.43982448    -0.12900
F1136       F  0.52834869  0.38469323  0.41237623    -0.15300
F1137       F  0.47271208  0.23655245  0.46885369    -0.15300
F1138       F  0.53635074  0.23867672  0.44068456    -0.12900
C1139       C  0.41673682  0.43593215  0.50975597     0.25100
C1140       C  0.45269817  0.41757182  0.50627001    -0.23000
C1141       C  0.50699138  0.44961364  0.51113229     0.20000
C1142       C  0.52502217  0.49916733  0.51953746     0.25000
C1143       C  0.48919724  0.51786805  0.52293986    -0.22900
C1144       C  0.43484495  0.48577768  0.51800998     0.19900
F1145       F  0.39935197  0.50273520  0.52114567    -0.12900
F1146       F  0.36420649  0.40583257  0.50490151    -0.15300
F1147       F  0.57701511  0.52776100  0.52518402    -0.15300
F1148       F  0.54218559  0.43208516  0.50833707    -0.12900
C1149       C  0.78955406  0.47367055  0.78298952     0.25100
C1150       C  0.77237870  0.41922066  0.78503239    -0.23000
C1151       C  0.78381725  0.39285700  0.77077510     0.20000
C1152       C  0.81196864  0.42036419  0.75481419     0.25000
C1153       C  0.83002503  0.47493932  0.75290926    -0.22900
C1154       C  0.81838597  0.50138112  0.76708633     0.19900
F1155       F  0.83568885  0.55425526  0.76565572    -0.12900
F1156       F  0.77980259  0.50038315  0.79661066    -0.15300
F1157       F  0.81995513  0.39323115  0.74087865    -0.15300
F1158       F  0.76628662  0.33989522  0.77203853    -0.12900
C1159       C  0.99108206  0.48996441  0.70803120     0.25100
C1160       C  0.98325864  0.53421187  0.70759576    -0.23000
C1161       C  0.02594533  0.58395524  0.70187165     0.20000
C1162       C  0.07501715  0.58942044  0.69673938     0.25000
C1163       C  0.08316577  0.54561384  0.69745295    -0.22900
C1164       C  0.04092625  0.49579204  0.70319070     0.19900
F1165       F  0.04775204  0.45277915  0.70390094    -0.12900
F1166       F  0.95034934  0.44101093  0.71284957    -0.15300
F1167       F  0.11575389  0.63860335  0.69207479    -0.15300
F1168       F  0.02112856  0.62819550  0.70197359    -0.12900
C1169       C  0.66105575  0.71400072  0.69042219     0.25100
C1170       C  0.67125580  0.70546934  0.67184140    -0.23000
C1171       C  0.63155316  0.69248859  0.65810934     0.20000
C1172       C  0.58274741  0.68831814  0.66275895     0.25000
C1173       C  0.57224796  0.69665020  0.68129283    -0.22900
C1174       C  0.61156810  0.70917037  0.69515274     0.19900
F1175       F  0.60222000  0.71716075  0.71315285    -0.12900
F1176       F  0.69912427  0.72755893  0.70388335    -0.15300
F1177       F  0.54447419  0.67312616  0.64925767    -0.15300
F1178       F  0.63914110  0.68156493  0.64024538    -0.12900
C1179       C  0.87800253  0.79256496  0.62595230     0.25100
C1180       C  0.82152244  0.76414102  0.62655765    -0.23000
C1181       C  0.79210342  0.76364225  0.61071818     0.20000
C1182       C  0.81871838  0.79230651  0.59480391     0.25000
C1183       C  0.87495268  0.81994722  0.59420670    -0.22900
C1184       C  0.90450714  0.81938584  0.60973203     0.19900
F1185       F  0.95900311  0.84650639  0.60944073    -0.12900
F1186       F  0.90758053  0.79567297  0.64123822    -0.15300
F1187       F  0.78960001  0.79211906  0.57977485    -0.15300
F1188       F  0.73767857  0.73442585  0.61044269    -0.12900
C1189       C  0.87891650  0.64012944  0.69346049     0.25100
C1190       C  0.84439420  0.58613447  0.69777381    -0.23000
C1191       C  0.79037381  0.56116047  0.69215466     0.20000
C1192       C  0.77074856  0.59004142  0.68273936     0.25000
C1193       C  0.80496498  0.64423052  0.67877329    -0.22900
C1194       C  0.85938924  0.66888875  0.68393986     0.19900
F1195       F  0.89332843  0.72123019  0.68016856    -0.12900
F1196       F  0.93110602  0.66547123  0.69899647    -0.15300
F1197       F  0.71869271  0.56483269  0.67709074    -0.15300
F1198       F  0.75689760  0.50853368  0.69552682    -0.12900
C1199       C  0.31882349  0.05254531  0.85399119     0.25100
C1200       C  0.30654342  0.03005041  0.87202752    -0.23000
C1201       C  0.34572395  0.05226356  0.88622633     0.20000
C1202       C  0.39600549  0.09607491  0.88247945     0.25000
C1203       C  0.40832762  0.11832921  0.86444481    -0.22900
C1204       C  0.36961627  0.09608958  0.85018431     0.19900
F1205       F  0.38071217  0.11713583  0.83269551    -0.12900
F1206       F  0.28127959  0.03308682  0.84017904    -0.15300
F1207       F  0.43360358  0.11526993  0.89630757    -0.15300
F1208       F  0.33601088  0.03053626  0.90362455    -0.12900
C1209       C  0.12968320  0.89631541  0.92701722     0.25100
C1210       C  0.14903196  0.93927410  0.91439082    -0.23000
C1211       C  0.14514459  0.98424326  0.91906112     0.20000
C1212       C  0.12402463  0.98712632  0.93619629     0.25000
C1213       C  0.10420706  0.94417931  0.94879956    -0.22900
C1214       C  0.10699083  0.89855253  0.94401469     0.19900
F1215       F  0.08959960  0.85690653  0.95604324    -0.12900
F1216       F  0.13448467  0.85299153  0.92326177    -0.15300
F1217       F  0.12264712  0.03208130  0.94030381    -0.15300
F1218       F  0.16144066  0.02551821  0.90692796    -0.12900
C1219       C  0.93280544  0.49054691  0.86127295     0.25100
C1220       C  0.89516024  0.45910840  0.84751628    -0.23000
C1221       C  0.90673872  0.47324557  0.82852878     0.20000
C1222       C  0.95520032  0.51732431  0.82336208     0.25000
C1223       C  0.99318820  0.54844988  0.83703881    -0.22900
C1224       C  0.98156322  0.53501729  0.85606044     0.19900
F1225       F  0.01756507  0.56469810  0.86955124    -0.12900
F1226       F  0.92257677  0.47802228  0.87968203    -0.15300
F1227       F  0.96399382  0.53098073  0.80498184    -0.15300
F1228       F  0.86990142  0.44606939  0.81493659    -0.12900
C1229       C  0.15123050  0.59873638  0.76284357     0.25100
C1230       C  0.20752635  0.62783736  0.76262885    -0.23000
C1231       C  0.23550366  0.65753581  0.77847989     0.20000
C1232       C  0.20750246  0.65888691  0.79424378     0.25000
C1233       C  0.15096045  0.63149260  0.79419219    -0.22900
C1234       C  0.12318167  0.60128537  0.77832303     0.19900
F1235       F  0.06880534  0.57606447  0.77741242    -0.12900
F1236       F  0.12325629  0.56946284  0.74771507    -0.15300
F1237       F  0.23565669  0.68643246  0.80961483    -0.15300
F1238       F  0.28990422  0.68408787  0.77886542    -0.12900
C1239       C  0.17771168  0.77159804  0.84847925     0.25100
C1240       C  0.12507232  0.74320419  0.84148226    -0.23000
C1241       C  0.09105202  0.76465001  0.84339675     0.20000
C1242       C  0.10983490  0.81418187  0.85206776     0.25000
C1243       C  0.16271623  0.84261084  0.85896705    -0.22900
C1244       C  0.19636857  0.82082822  0.85713425     0.19900
F1245       F  0.24662340  0.84610656  0.86453762    -0.12900
F1246       F  0.21041520  0.75050567  0.84763053    -0.15300
F1247       F  0.07657583  0.83447707  0.85368255    -0.15300
F1248       F  0.03994149  0.73788526  0.83676121    -0.12900
C1249       C  0.45403360  0.09166889  0.26794709     0.25100
C1250       C  0.46941343  0.11844331  0.25066913    -0.23000
C1251       C  0.51155728  0.17159963  0.25018813     0.20000
C1252       C  0.53801706  0.19761795  0.26666403     0.25000
C1253       C  0.52231069  0.17119803  0.28391701    -0.22900
C1254       C  0.48023541  0.11806215  0.28450118     0.19900
F1255       F  0.46412830  0.09218022  0.30113060    -0.12900
F1256       F  0.41298599  0.04052727  0.26882443    -0.15300
F1257       F  0.58019478  0.24808045  0.26571021    -0.15300
F1258       F  0.52788720  0.19787130  0.23363503    -0.12900
C1259       C  0.35349132  0.88093922  0.19097726     0.25100
C1260       C  0.39587973  0.87052569  0.19294097    -0.23000
C1261       C  0.44548399  0.91096175  0.19996522     0.20000
C1262       C  0.45276966  0.96115316  0.20455971     0.25000
C1263       C  0.40969734  0.97097484  0.20313978    -0.22900
C1264       C  0.35993399  0.93003953  0.19638460     0.19900
F1265       F  0.31617559  0.93609966  0.19619068    -0.12900
F1266       F  0.30416612  0.84193848  0.18533262    -0.15300
F1267       F  0.50177754  0.99982055  0.21059028    -0.15300
F1268       F  0.48658824  0.90164672  0.20283765    -0.12900
C1269       C  0.15702350  0.13690930  0.09355008     0.25100
C1270       C  0.12497134  0.08115633  0.09370504    -0.23000
C1271       C  0.11682077  0.05304114  0.11042750     0.20000
C1272       C  0.14176490  0.08031615  0.12685052     0.25000
C1273       C  0.17567972  0.13604413  0.12665847    -0.22900
C1274       C  0.18247215  0.16427125  0.10992330     0.19900
F1275       F  0.21485739  0.21802308  0.10927772    -0.12900
F1276       F  0.16425375  0.16464916  0.07745815    -0.15300
F1277       F  0.13204366  0.05245641  0.14303662    -0.15300
F1278       F  0.08302146  0.99947992  0.11095889    -0.12900
C1279       C  0.29583459  0.37878570  0.18290740     0.25100
C1280       C  0.25031497  0.38463484  0.18331342    -0.23000
C1281       C  0.20024641  0.34159658  0.17809916     0.20000
C1282       C  0.19536617  0.29275475  0.17314699     0.25000
C1283       C  0.24106698  0.28702382  0.17245423    -0.22900
C1284       C  0.29144325  0.33080545  0.17719789     0.19900
F1285       F  0.33694880  0.32812594  0.17538705    -0.12900
F1286       F  0.34530101  0.42077707  0.18677888    -0.15300
F1287       F  0.14592778  0.25113382  0.16906984    -0.15300
F1288       F  0.15612577  0.34688604  0.17763414    -0.12900
C1289       C  0.27433815  0.09583932  0.18276093     0.25100
C1290       C  0.29743371  0.15031766  0.17855684    -0.23000
C1291       C  0.35180224  0.18514796  0.18290095     0.20000
C1292       C  0.38245431  0.16580049  0.19135940     0.25000
C1293       C  0.35923773  0.11136948  0.19565960    -0.22900
C1294       C  0.30496754  0.07653063  0.19118687     0.19900
F1295       F  0.28101853  0.02397573  0.19555673    -0.12900
F1296       F  0.22160112  0.06148267  0.17918930    -0.15300
F1297       F  0.43511925  0.20005706  0.19502852    -0.15300
F1298       F  0.37560362  0.23771659  0.17855223    -0.12900
C1299       C  0.45320593  0.95755919  0.34012244     0.25100
C1300       C  0.40040955  0.94860587  0.34007496    -0.23000
C1301       C  0.39153325  0.99019128  0.34546277     0.20000
C1302       C  0.43409434  0.03918802  0.35110473     0.25000
C1303       C  0.48684451  0.04870164  0.35077742    -0.22900
C1304       C  0.49626970  0.00766451  0.34511052     0.19900
F1305       F  0.54709237  0.01626474  0.34427313    -0.12900
F1306       F  0.46309829  0.91799866  0.33532106    -0.15300
F1307       F  0.42408193  0.07881948  0.35552414    -0.15300
F1308       F  0.34187673  0.98451274  0.34422782    -0.12900
C1309       C  0.26852426  0.78868538  0.27878119     0.25100
C1310       C  0.30990277  0.80328507  0.29207423    -0.23000
C1311       C  0.34960257  0.78977789  0.28890576     0.20000
C1312       C  0.34823033  0.76235394  0.27274236     0.25000
C1313       C  0.30632983  0.74668854  0.25963543    -0.22900
C1314       C  0.26618423  0.75967100  0.26283242     0.19900
F1315       F  0.22570887  0.74572952  0.25030606    -0.12900
F1316       F  0.23080296  0.80318079  0.28112145    -0.15300
F1317       F  0.38730230  0.74980452  0.27016853    -0.15300
F1318       F  0.38871794  0.80137971  0.30179319    -0.12900
C1319       C  0.04732659  0.82757467  0.44711864     0.25100
C1320       C  0.00487957  0.83738624  0.45022166    -0.23000
C1321       C  0.96307512  0.81909116  0.43690267     0.20000
C1322       C  0.96423223  0.79271674  0.42072189     0.25000
C1323       C  0.00591084  0.78176515  0.41783497    -0.22900
C1324       C  0.04732035  0.79913118  0.43126799     0.19900
F1325       F  0.08725330  0.78757707  0.42928049    -0.12900
F1326       F  0.08790563  0.84382519  0.45974063    -0.15300
F1327       F  0.92525886  0.77923590  0.40759545    -0.15300
F1328       F  0.92114915  0.82731201  0.43935221    -0.12900
C1329       C  0.86271602  0.62800978  0.37093037     0.25100
C1330       C  0.91458327  0.63464767  0.37039774    -0.23000
C1331       C  0.92098066  0.59193913  0.36439055     0.20000
C1332       C  0.87663415  0.54367857  0.35917010     0.25000
C1333       C  0.82476185  0.53649492  0.36023100    -0.22900
C1334       C  0.81796354  0.57881651  0.36630659     0.19900
F1335       F  0.76816835  0.57235061  0.36806960    -0.12900
F1336       F  0.85536877  0.66903856  0.37598389    -0.15300
F1337       F  0.88412217  0.50241313  0.35453031    -0.15300
F1338       F  0.96988572  0.59567279  0.36459933    -0.12900
C1339       C  0.14015057  0.82587325  0.35987966     0.25100
C1340       C  0.10741981  0.77111866  0.36337310    -0.23000
C1341       C  0.12512050  0.73571079  0.35817372     0.20000
C1342       C  0.17524962  0.75497337  0.34993089     0.25000
C1343       C  0.20823147  0.80982955  0.34665183    -0.22900
C1344       C  0.19007680  0.84506239  0.35150339     0.19900
F1345       F  0.21994038  0.89786650  0.34758642    -0.12900
F1346       F  0.12332417  0.86068386  0.36427576    -0.15300
F1347       F  0.19200716  0.72014555  0.34545763    -0.15300
F1348       F  0.09467461  0.68266694  0.36161707    -0.12900
C1349       C  0.16126117  0.24499811  0.03423704     0.25100
C1350       C  0.16710078  0.20126182  0.02944057    -0.23000
C1351       C  0.21824603  0.20642030  0.03019092     0.20000
C1352       C  0.26258875  0.25392838  0.03615884     0.25000
C1353       C  0.25717991  0.29811755  0.04094698    -0.22900
C1354       C  0.20597970  0.29319184  0.03985642     0.19900
F1355       F  0.19915810  0.33501680  0.04413270    -0.12900
F1356       F  0.11244446  0.24124327  0.03325419    -0.15300
F1357       F  0.31031428  0.25562349  0.03818483    -0.15300
F1358       F  0.22484329  0.16425865  0.02616837    -0.12900
C1359       C  0.37417776  0.53054689  0.10474799     0.25100
C1360       C  0.33970980  0.50204159  0.11948558    -0.23000
C1361       C  0.30993001  0.44615225  0.11863415     0.20000
C1362       C  0.31412859  0.41930766  0.10305172     0.25000
C1363       C  0.34569676  0.44808162  0.08759176    -0.22900
C1364       C  0.37559403  0.50421597  0.08864512     0.19900
F1365       F  0.40512752  0.53405964  0.07393557    -0.12900
F1366       F  0.40559385  0.58427579  0.10573567    -0.15300
F1367       F  0.28852677  0.36523830  0.10335555    -0.15300
F1368       F  0.27834442  0.41748574  0.13317062    -0.12900
C1369       C  0.68933413  0.44324520  0.95988166     0.25100
C1370       C  0.64688365  0.45114887  0.96496716    -0.23000
C1371       C  0.60184813  0.43255625  0.95304842     0.20000
C1372       C  0.59955462  0.40679396  0.93628510     0.25000
C1373       C  0.64262158  0.39997225  0.93101989    -0.22900
C1374       C  0.68723832  0.41787780  0.94310197     0.19900
F1375       F  0.72857917  0.40978811  0.93890354    -0.12900
F1376       F  0.73248272  0.45911032  0.97131629    -0.15300
F1377       F  0.55600285  0.39012852  0.92499312    -0.15300
F1378       F  0.56069378  0.44086317  0.95731063    -0.12900
C1379       C  0.79895413  0.68048307  0.02865899     0.25100
C1380       C  0.82674231  0.71575420  0.01400910    -0.23000
C1381       C  0.81133895  0.69888677  0.99535294     0.20000
C1382       C  0.76827390  0.64821283  0.99149607     0.25000
C1383       C  0.74076798  0.61246522  0.00616724    -0.22900
C1384       C  0.75712751  0.62897892  0.02477710     0.19900
F1385       F  0.73303071  0.59504404  0.03927039    -0.12900
F1386       F  0.81267767  0.69561880  0.04675908    -0.15300
F1387       F  0.75213757  0.63526056  0.97341252    -0.15300
F1388       F  0.83621023  0.73232370  0.98076848    -0.12900
C1389       C  0.50820889  0.46888122  0.00852936     0.25100
C1390       C  0.55164539  0.47137433  0.01835781    -0.23000
C1391       C  0.54540990  0.45418588  0.03696243     0.20000
C1392       C  0.49599026  0.43506031  0.04579402     0.25000
C1393       C  0.45227688  0.43222753  0.03594752    -0.22900
C1394       C  0.45868581  0.44928604  0.01726345     0.19900
F1395       F  0.41733653  0.44798740  0.00764081    -0.12900
F1396       F  0.51405705  0.48568982  0.99049009    -0.15300
F1397       F  0.49037600  0.41822473  0.06381016    -0.15300
F1398       F  0.58665956  0.45448389  0.04630945    -0.12900
C1399       C  0.14932864  0.49625779  0.61211260     0.25100
C1400       C  0.20405928  0.51378076  0.61456812    -0.23000
C1401       C  0.23251255  0.50629502  0.59997616     0.20000
C1402       C  0.20629781  0.48085219  0.58336118     0.25000
C1403       C  0.15132592  0.46240138  0.58110155    -0.22900
C1404       C  0.12328276  0.47123424  0.59545832     0.19900
F1405       F  0.07001144  0.45355238  0.59367817    -0.12900
F1406       F  0.12035324  0.50064681  0.62624984    -0.15300
F1407       F  0.23458588  0.47455979  0.56940071    -0.15300
F1408       F  0.28575945  0.52382357  0.60176694    -0.12900
C1409       C  0.09143374  0.28685863  0.52203398     0.25100
C1410       C  0.08596205  0.30061086  0.54048020    -0.23000
C1411       C  0.07411870  0.26330802  0.55487020     0.20000
C1412       C  0.06666484  0.21291605  0.55083771     0.25000
C1413       C  0.07018626  0.19838755  0.53228089    -0.22900
C1414       C  0.08303660  0.23594175  0.51792624     0.19900
F1415       F  0.08803338  0.22355979  0.49998967    -0.12900
F1416       F  0.10533678  0.32298501  0.50802299    -0.15300
F1417       F  0.05320041  0.17730209  0.56502838    -0.15300
F1418       F  0.06724521  0.27465838  0.57275670    -0.12900
C1419       C  0.86604614  0.61904431  0.50633211     0.25100
C1420       C  0.91113326  0.61209411  0.50721123    -0.23000
C1421       C  0.96070031  0.65509827  0.51296920     0.20000
C1422       C  0.96534119  0.70417027  0.51722783     0.25000
C1423       C  0.92085075  0.71160415  0.51578338    -0.22900
C1424       C  0.87107935  0.66864579  0.51030887     0.19900
F1425       F  0.82743536  0.67463162  0.50882363    -0.12900
F1426       F  0.81704663  0.57774075  0.50157145    -0.15300
F1427       F  0.01444607  0.74575037  0.52152307    -0.15300
F1428       F  0.00549798  0.65079877  0.51343162    -0.12900
C1429       C  0.86608907  0.44225172  0.44774442     0.25100
C1430       C  0.84525510  0.46450988  0.46037406    -0.23000
C1431       C  0.79550860  0.46045284  0.45657353     0.20000
C1432       C  0.76671523  0.43401473  0.44055536     0.25000
C1433       C  0.78722397  0.41115707  0.42801019    -0.22900
C1434       C  0.83711854  0.41537534  0.43181988     0.19900
F1435       F  0.85849299  0.39432852  0.41998891    -0.12900
F1436       F  0.91494087  0.44707973  0.45066448    -0.15300
F1437       F  0.71784446  0.42920672  0.43772755    -0.15300
F1438       F  0.77369362  0.48029578  0.46872973    -0.12900
C1439       C  0.98634241  0.44984019  0.50241077     0.25100
C1440       C  0.95637387  0.46585544  0.51350413    -0.23000
C1441       C  0.95687297  0.46098488  0.53303849     0.20000
C1442       C  0.98838126  0.44260207  0.54137551     0.25000
C1443       C  0.02042590  0.42926160  0.53035654    -0.22900
C1444       C  0.01825984  0.43195062  0.51077942     0.19900
F1445       F  0.04899921  0.41977838  0.49976565    -0.12900
F1446       F  0.98671035  0.45369557  0.48345210    -0.15300
F1447       F  0.98752101  0.43769733  0.56029430    -0.15300
F1448       F  0.92643118  0.47348393  0.54406679    -0.12900
C1449       C  0.78176469  0.57434902  0.86761428     0.25100
C1450       C  0.72985770  0.53195088  0.86399945    -0.23000
C1451       C  0.68578460  0.53990598  0.86535111     0.20000
C1452       C  0.69335243  0.58967547  0.87016359     0.25000
C1453       C  0.74526776  0.63249445  0.87341148    -0.22900
C1454       C  0.78952129  0.62464987  0.87214592     0.19900
F1455       F  0.84007131  0.66576599  0.87509767    -0.12900
F1456       F  0.82471346  0.56709055  0.86655606    -0.15300
F1457       F  0.64981339  0.59561827  0.87236743    -0.15300
F1458       F  0.63506100  0.49862549  0.86298457    -0.12900
C1459       C  0.89071681  0.83389760  0.93550533     0.25100
C1460       C  0.86307336  0.84367269  0.94976920    -0.23000
C1461       C  0.80743292  0.82252022  0.94822015     0.20000
C1462       C  0.78003661  0.79309063  0.93235727     0.25000
C1463       C  0.80801011  0.78405081  0.91807876    -0.22900
C1464       C  0.86316066  0.80361079  0.91990601     0.19900
F1465       F  0.89046340  0.79437331  0.90633095    -0.12900
F1466       F  0.94467242  0.85459095  0.93650964    -0.15300
F1467       F  0.72614114  0.77240534  0.93107052    -0.15300
F1468       F  0.77950220  0.82873212  0.96232107    -0.12900
C1469       C  0.44832816  0.76372884  0.77423924     0.25100
C1470       C  0.46946146  0.74514653  0.76031139    -0.23000
C1471       C  0.52320010  0.75729999  0.76189438     0.20000
C1472       C  0.55530256  0.78868078  0.77678075     0.25000
C1473       C  0.53378787  0.80694251  0.79071151    -0.22900
C1474       C  0.47974188  0.79325275  0.78944706     0.19900
F1475       F  0.45665842  0.80687348  0.80330516    -0.12900
F1476       F  0.39658471  0.75220496  0.77341731    -0.15300
F1477       F  0.60771368  0.80199160  0.77739988    -0.15300
F1478       F  0.54525261  0.74025144  0.74877242    -0.12900
C1479       C  0.58482910  0.01319987  0.85973075     0.25100
C1480       C  0.59311102  0.05234815  0.84648351    -0.23000
C1481       C  0.60386173  0.04554183  0.82777592     0.20000
C1482       C  0.60648608  0.00074915  0.82241152     0.25000
C1483       C  0.59644362  0.96060664  0.83543385    -0.22900
C1484       C  0.58554550  0.96715064  0.85418415     0.19900
F1485       F  0.57455464  0.92857089  0.86703283    -0.12900
F1486       F  0.57527132  0.01917689  0.87792460    -0.15300
F1487       F  0.62061183  0.99744507  0.80454088    -0.15300
F1488       F  0.61445354  0.08358761  0.81475111    -0.12900
C1489       C  0.62543085  0.77242245  0.84974331     0.25100
C1490       C  0.65434730  0.82506495  0.84315576    -0.23000
C1491       C  0.71028641  0.85454466  0.84545341     0.20000
C1492       C  0.73697034  0.83139393  0.85423530     0.25000
C1493       C  0.70771558  0.77919132  0.86119599    -0.22900
C1494       C  0.65190037  0.74976657  0.85881513     0.19900
F1495       F  0.62288396  0.69964661  0.86579355    -0.12900
F1496       F  0.57132251  0.74324709  0.84760722    -0.15300
F1497       F  0.79129040  0.85941610  0.85572633    -0.15300
F1498       F  0.73900742  0.90503538  0.83878529    -0.12900
C1499       C  0.08988820  0.32126395  0.65619860     0.25100
C1500       C  0.06254497  0.28249432  0.67000928    -0.23000
C1501       C  0.08213244  0.29265060  0.68852816     0.20000
C1502       C  0.12814550  0.34090731  0.69315088     0.25000
C1503       C  0.15560393  0.37935706  0.67928895    -0.22900
C1504       C  0.13608367  0.36902011  0.66075351     0.19900
F1505       F  0.16007792  0.40636815  0.64717092    -0.12900
F1506       F  0.07067907  0.31382590  0.63839228    -0.15300
F1507       F  0.14618609  0.34988940  0.71110709    -0.15300
F1508       F  0.05714138  0.25555116  0.70208864    -0.12900
C1509       C  0.01182834  0.11392851  0.62538808     0.25100
C1510       C  0.96915044  0.12362326  0.62784610    -0.23000
C1511       C  0.92745358  0.10393411  0.61448319     0.20000
C1512       C  0.92859179  0.07520309  0.59894528     0.25000
C1513       C  0.97206614  0.06675585  0.59623031    -0.22900
C1514       C  0.01384290  0.08679315  0.60958304     0.19900
F1515       F  0.05688408  0.08017842  0.60742583    -0.12900
F1516       F  0.05136722  0.13006847  0.63844848    -0.05100
F1517       F  0.88835985  0.05784754  0.58612740    -0.15300
F1518       F  0.88644180  0.11404907  0.61609298    -0.12900
C1519       C  0.55581477  0.95689089  0.68896283     0.25100
C1520       C  0.57738533  0.96759876  0.70723722    -0.23000
C1521       C  0.55388551  0.92780593  0.72095187     0.20000
C1522       C  0.51014258  0.87825794  0.71652969     0.25000
C1523       C  0.48977129  0.86663965  0.69816204    -0.22900
C1524       C  0.51249878  0.90641266  0.68439190     0.19900
F1525       F  0.49230433  0.89667015  0.66671060    -0.12900
F1526       F  0.57638849  0.99540398  0.67565123    -0.15300
F1527       F  0.48937674  0.84048200  0.73009222    -0.15300
F1528       F  0.57481877  0.93598019  0.73851100    -0.12900
C1529       C  0.62268045  0.15403587  0.77117940     0.25100
C1530       C  0.66640903  0.17578092  0.78371874    -0.23000
C1531       C  0.71219874  0.17237510  0.77935202     0.20000
C1532       C  0.71326037  0.14585799  0.76319743     0.25000
C1533       C  0.66925325  0.12377145  0.75072465    -0.22900
C1534       C  0.62452736  0.12921969  0.75473245     0.19900
F1535       F  0.58285409  0.11160947  0.74250536    -0.12900
F1536       F  0.57822196  0.15755156  0.77458333    -0.15300
F1537       F  0.75683688  0.14051695  0.76013354    -0.15300
F1538       F  0.75547825  0.19321651  0.79096385    -0.12900
C1539       C  0.77428882  0.11957200  0.67869874     0.25100
C1540       C  0.76970787  0.10607206  0.69769861    -0.23000
C1541       C  0.81509881  0.11354237  0.70772410     0.20000
C1542       C  0.86452572  0.13409346  0.69877288     0.25000
C1543       C  0.86899822  0.14734255  0.67973170    -0.22900
C1544       C  0.82370011  0.14017640  0.66976129     0.19900
F1545       F  0.82764247  0.15385329  0.65141408    -0.12900
F1546       F  0.73124673  0.11411538  0.66897818    -0.15300
F1547       F  0.90758800  0.13959520  0.70850301    -0.15300
F1548       F  0.81121974  0.10006404  0.72609898    -0.12900
loop_ 
_geom_bond_atom_site_label_1 
_geom_bond_atom_site_label_2 
_geom_bond_distance 
_geom_bond_site_symmetry_2 
_ccdc_geom_bond_type 
C1            C2   1.397       .  A
C1            C6   1.405       .  A
C1         C1533   1.481       .  S
C2            C3   1.395       .  A
C2            H7   1.084       .  S
C3            C4   1.402       .  A
C3         C1540   1.468       .  S
C4            C5   1.403       .  A
C4            H8   1.084       .  S
C5            C6   1.404       .  A
C5         C1520   1.480   1_545  S
C6            H9   1.083       .  S
C10          C11   1.397       .  A
C10          C15   1.404   1_655  A
C10        C1510   1.479       .  S
C11          C12   1.397       .  A
C11          H16   1.084       .  S
C12          C13   1.402       .  A
C12        C1543   1.468       .  S
C13          C14   1.404   1_655  A
C13          H17   1.084       .  S
C14          C15   1.404       .  A
C14        C1500   1.480       .  S
C15          H18   1.083       .  S
C19          C20   1.408       .  A
C19          C24   1.404       .  A
C19        C1483   1.482       .  S
C20          C21   1.405       .  A
C20          H25   1.083       .  S
C21          C22   1.396       .  A
C21        C1473   1.482       .  S
C22          C23   1.397       .  A
C22          H26   1.084       .  S
C23          C24   1.402       .  A
C23        C1490   1.468       .  S
C24          H27   1.084       .  S
C28          C29   1.400       .  A
C28          C33   1.401       .  A
C28        C1453   1.468       .  S
C29          C30   1.399       .  A
C29          H34   1.084       .  S
C30          C31   1.397       .  A
C30        C1463   1.464       .  S
C31          C32   1.397       .  A
C31          H35   1.085       .  S
C32          C33   1.398       .  A
C32        C1493   1.466       .  S
C33          H36   1.084       .  S
C37          C38   1.408       .  A
C37          C42   1.402       .  A
C37        C1420   1.485       .  S
C38          C39   1.408       .  A
C38          H43   1.083       .  S
C39          C40   1.396       .  A
C39        C1440   1.480       .  S
C40          C41   1.396       .  A
C40          H44   1.084       .  S
C41          C42   1.400       .  A
C41        C1430   1.474       .  S
C42          H45   1.084       .  S
C46          C47   1.397       .  A
C46          C51   1.404       .  A
C46        C1403   1.478       .  S
C47          C48   1.400       .  A
C47          H52   1.084       .  S
C48          C49   1.404       .  A
C48        C1443   1.478       .  S
C49          C50   1.406       .  A
C49          H53   1.084       .  S
C50          C51   1.406       .  A
C50        C1410   1.484       .  S
C51          H54   1.084       .  S
C55          C56   1.405       .  A
C55          C60   1.407   1_554  A
C55        C1383   1.484       .  S
C56          C57   1.397       .  A
C56          H61   1.083       .  S
C57          C58   1.391   1_554  A
C57        C1390   1.461       .  S
C58          C59   1.395       .  A
C58          H62   1.084       .  S
C59          C60   1.404       .  A
C59        C1370   1.475       .  S
C60          H63   1.082       .  S
C64          C65   1.406       .  A
C64          C69   1.404       .  A
C64        C1353   1.487       .  S
C65          C66   1.408       .  A
C65          H70   1.082       .  S
C66          C67   1.401       .  A
C66        C1363   1.485       .  S
C67          C68   1.395       .  A
C67          H71   1.083       .  S
C68          C69   1.399       .  A
C68        C1393   1.469       .  S
C69          H72   1.084       .  S
C73          C74   1.399       .  A
C73          C78   1.406   1_455  A
C73        C1323   1.482       .  S
C74          C75   1.399       .  A
C74          H79   1.083       .  S
C75          C76   1.398       .  A
C75        C1340   1.472       .  S
C76          C77   1.401   1_455  A
C76          H80   1.084       .  S
C77          C78   1.406       .  A
C77        C1330   1.481       .  S
C78          H81   1.083       .  S
C82          C83   1.396       .  A
C82          C87   1.406       .  A
C82        C1310   1.474       .  S
C83          C84   1.394       .  A
C83          H88   1.084       .  S
C84          C85   1.399       .  A
C84        C1343   1.471       .  S
C85          C86   1.404       .  A
C85          H89   1.084       .  S
C86          C87   1.405       .  A
C86        C1300   1.481       .  S
C87          H90   1.083       .  S
C91          C92   1.405       .  A
C91          C96   1.404       .  A
C91        C1283   1.481       .  S
C92          C93   1.401       .  A
C92          H97   1.083       .  S
C93          C94   1.398       .  A
C93        C1290   1.479       .  S
C94          C95   1.400       .  A
C94          H98   1.084       .  S
C95          C96   1.401       .  A
C95        C1273   1.474       .  S
C96          H99   1.083       .  S
C100        C101   1.402       .  A
C100        C105   1.405       .  A
C100       C1250   1.480       .  S
C101        C102   1.401       .  A
C101        H106   1.084       .  S
C102        C103   1.401       .  A
C102       C1293   1.480       .  S
C103        C104   1.406       .  A
C103        H107   1.084       .  S
C104        C105   1.409       .  A
C104       C1263   1.489   1_545  S
C105        H108   1.083       .  S
C109        C110   1.400       .  A
C109        C114   1.403       .  A
C109       C1223   1.476   1_455  S
C110        C111   1.400       .  A
C110        H115   1.084       .  S
C111        C112   1.402       .  A
C111       C1240   1.473       .  S
C112        C113   1.401       .  A
C112        H116   1.084       .  S
C113        C114   1.403       .  A
C113       C1233   1.483       .  S
C114        H117   1.084       .  S
C118        C119   1.402       .  A
C118        C123   1.400       .  A
C118       C1200   1.480   1_565  S
C119        C120   1.404       .  A
C119        H124   1.084       .  S
C120        C121   1.400       .  A
C120       C1243   1.474       .  S
C121        C122   1.400       .  A
C121        H125   1.084       .  S
C122        C123   1.402       .  A
C122       C1210   1.477       .  S
C123        H126   1.083   1_565  S
C127        C128   1.398       .  A
C127        C132   1.401       .  A
C127       C1180   1.475       .  S
C128        C129   1.397       .  A
C128        H133   1.084       .  S
C129        C130   1.404       .  A
C129       C1193   1.472       .  S
C130        C131   1.403       .  A
C130        H134   1.083       .  S
C131        C132   1.402       .  A
C131       C1170   1.479       .  S
C132        H135   1.084       .  S
C136        C137   1.404       .  A
C136        C141   1.408       .  A
C136       C1160   1.487       .  S
C137        C138   1.398       .  A
C137        H142   1.084       .  S
C138        C139   1.399       .  A
C138       C1190   1.474       .  S
C139        C140   1.400       .  A
C139        H143   1.084       .  S
C140        C141   1.408       .  A
C140       C1153   1.480       .  S
C141        H144   1.083       .  S
C145        C146   1.407       .  A
C145        C150   1.404       .  A
C145       C1120   1.484       .  S
C146        C147   1.405       .  A
C146        H151   1.083       .  S
C147        C148   1.400       .  A
C147       C1133   1.478       .  S
C148        C149   1.397       .  A
C148        H152   1.084       .  S
C149        C150   1.399       .  A
C149       C1140   1.472       .  S
C150        H153   1.084       .  S
C154        C155   1.406       .  A
C154        C159   1.406       .  A
C154       C1113   1.493       .  S
C155        C156   1.407       .  A
C155        H160   1.083       .  S
C156        C157   1.399       .  A
C156       C1103   1.479       .  S
C157        C158   1.397       .  A
C157        H161   1.083       .  S
C158        C159   1.402       .  A
C158       C1143   1.476       .  S
C159        H162   1.083       .  S
C163        C164   1.406       .  A
C163        C168   1.405   1_554  A
C163       C1083   1.483       .  S
C164        C165   1.404       .  A
C164        H169   1.084       .  S
C165        C166   1.397   1_554  A
C165       C1090   1.472       .  S
C166        C167   1.396       .  A
C166        H170   1.084       .  S
C167        C168   1.402       .  A
C167       C1070   1.478       .  S
C168        H171   1.083       .  S
C172        C173   1.406       .  A
C172        C177   1.406       .  A
C172       C1050   1.482       .  S
C173        C174   1.401       .  A
C173        H178   1.083       .  S
C174        C175   1.396       .  A
C174       C1093   1.470       .  S
C175        C176   1.395       .  A
C175        H179   1.084       .  S
C176        C177   1.398       .  A
C176       C1063   1.468       .  S
C177        H180   1.083       .  S
C181        C182   1.406       .  A
C181        C186   1.401       .  A
C181       C1030   1.483       .  S
C182        C183   1.405       .  A
C182        H187   1.083       .  S
C183        C184   1.404       .  A
C183       C1023   1.485       .  S
C184        C185   1.400       .  A
C184        H188   1.084       .  S
C185        C186   1.400       .  A
C185       C1040   1.473       .  S
C186        H189   1.084       .  S
C190        C191   1.401       .  A
C190        C195   1.401       .  A
C190       C1013   1.475       .  S
C191        C192   1.402       .  A
C191        H196   1.084       .  S
C192        C193   1.401       .  A
C192       C1000   1.475   1_455  S
C193        C194   1.401       .  A
C193        H197   1.084       .  S
C194        C195   1.401       .  A
C194       C1043   1.473       .  S
C195        H198   1.084       .  S
C199        C200   1.396       .  A
C199        C204   1.400       .  A
C199        C973   1.467       .  S
C200        C201   1.398       .  A
C200        H205   1.084       .  S
C201        C202   1.402       .  A
C201        C990   1.474       .  S
C202        C203   1.404       .  A
C202        H206   1.084       .  S
C203        C204   1.401       .  A
C203        C980   1.477       .  S
C204        H207   1.084       .  S
C208        C209   1.401   1_565  A
C208        C213   1.408       .  A
C208        C950   1.483       .  S
C209        C210   1.399       .  A
C209        H214   1.084       .  S
C210        C211   1.400   1_545  A
C210        C993   1.476       .  S
C211        C212   1.401       .  A
C211        H215   1.083       .  S
C212        C213   1.405       .  A
C212        C960   1.481       .  S
C213        H216   1.083       .  S
C217        C218   1.397       .  A
C217        C222   1.410       .  A
C217        C930   1.483       .  S
C218        C219   1.396       .  A
C218        H223   1.084       .  S
C219        C220   1.403       .  A
C219        C940   1.476       .  S
C220        C221   1.406       .  A
C220        H224   1.084       .  S
C221        C222   1.409       .  A
C221        C920   1.488       .  S
C222        H225   1.083       .  S
C226        C227   1.404       .  A
C226        C231   1.404       .  A
C226        C903   1.483   1_565  S
C227        C228   1.406       .  A
C227        H232   1.084       .  S
C228        C229   1.401       .  A
C228        C943   1.480       .  S
C229        C230   1.399       .  A
C229        H233   1.084       .  S
C230        C231   1.403       .  A
C230        C910   1.477       .  S
C231        H234   1.084   1_565  S
C235        C236   1.396       .  A
C235        C240   1.400       .  A
C235        C883   1.469       .  S
C236        C237   1.398       .  A
C236        H241   1.084       .  S
C237        C238   1.404       .  A
C237        C890   1.475       .  S
C238        C239   1.409       .  A
C238        H242   1.083       .  S
C239        C240   1.405       .  A
C239        C870   1.487       .  S
C240        H243   1.084       .  S
C244        C245   1.406       .  A
C244        C249   1.406       .  A
C244        C853   1.487       .  S
C245        C246   1.406   1_565  A
C245        H250   1.083       .  S
C246        C247   1.401       .  A
C246        C893   1.480       .  S
C247        C248   1.401   1_545  A
C247        H251   1.084       .  S
C248        C249   1.401       .  A
C248        C860   1.482       .  S
C249        H252   1.083       .  S
C253        C254   1.407       .  A
C253        C258   1.401       .  A
C253        C833   1.483       .  S
C254        C255   1.407       .  A
C254        H259   1.083       .  S
C255        C256   1.402       .  A
C255        C823   1.482       .  S
C256        C257   1.399       .  A
C256        H260   1.084       .  S
C257        C258   1.397       .  A
C257        C840   1.475   1_545  S
C258        H261   1.084       .  S
C262        C263   1.403       .  A
C262        C267   1.409       .  A
C262        C813   1.490       .  S
C263        C264   1.398       .  A
C263        H268   1.083       .  S
C264        C265   1.399       .  A
C264        C843   1.473       .  S
C265        C266   1.401       .  A
C265        H269   1.084       .  S
C266        C267   1.405       .  A
C266        C800   1.479       .  S
C267        H270   1.083       .  S
C271        C272   1.406       .  A
C271        C276   1.408       .  A
C271        C780   1.490       .  S
C272        C273   1.401       .  A
C272        H277   1.083       .  S
C273        C274   1.397       .  A
C273        C790   1.469       .  S
C274        C275   1.399       .  A
C274        H278   1.084       .  S
C275        C276   1.405       .  A
C275        C770   1.483       .  S
C276        H279   1.082       .  S
C280        C281   1.403   1_455  A
C280        C285   1.398       .  A
C280        C750   1.472       .  S
C281        C282   1.404       .  A
C281        H286   1.084       .  S
C282        C283   1.399       .  A
C282        C793   1.470       .  S
C283        C284   1.397       .  A
C283        H287   1.084       .  S
C284        C285   1.395   1_655  A
C284        C763   1.463       .  S
C285        H288   1.085       .  S
C289        C290   1.408   1_554  A
C289        C294   1.406       .  A
C289        C720   1.491       .  S
C290        C291   1.407       .  A
C290        H295   1.083       .  S
C291        C292   1.397       .  A
C291        C730   1.480       .  S
C292        C293   1.396   1_556  A
C292        H296   1.084       .  S
C293        C294   1.399       .  A
C293        C740   1.470       .  S
C294        H297   1.083       .  S
C298        C299   1.404       .  A
C298        C303   1.407       .  A
C298        C713   1.482       .  S
C299        C300   1.399       .  A
C299        H304   1.083       .  S
C300        C301   1.393       .  A
C300        C703   1.466       .  S
C301        C302   1.394       .  A
C301        H305   1.084       .  S
C302        C303   1.400       .  A
C302        C743   1.468   1_455  S
C303        H306   1.083       .  S
C307        C308   1.400       .  A
C307        C312   1.400       .  A
C307        C680   1.473       .  S
C308        C309   1.399       .  A
C308        H313   1.084       .  S
C309        C310   1.401       .  A
C309        C690   1.471       .  S
C310        C311   1.401       .  A
C310        H314   1.084       .  S
C311        C312   1.398       .  A
C311        C670   1.467       .  S
C312        H315   1.084       .  S
C316        C317   1.401       .  A
C316        C321   1.404   1_655  A
C316        C660   1.475       .  S
C317        C318   1.397   1_655  A
C317        H322   1.084       .  S
C318        C319   1.397       .  A
C318        C650   1.468       .  S
C319        C320   1.398       .  A
C319        H323   1.085       .  S
C320        C321   1.403       .  A
C320        C693   1.471       .  S
C321        H324   1.084       .  S
O325        C336   1.289       .  A
O325       Eu361   2.444       .  S
O326        C337   1.290       .  A
O326       Eu360   2.450       .  S
O327        C338   1.289       .  A
O327       Eu333   2.443       .  S
O328        C339   1.291       .  A
O328       Eu333   2.461       .  S
O329        C339   1.288       .  A
O329       Eu363   2.444       .  S
O330        C338   1.292       .  A
O330       Eu362   2.461       .  S
O331        C337   1.291       .  A
O331       Eu333   2.459       .  S
O332        C336   1.289       .  A
O332       Eu333   2.441       .  S
Eu333       O343   2.348       .  S
Eu333       O335   2.345       .  S
Eu333       O334   2.335       .  S
Eu333       O341   2.358       .  S
O334       Eu363   2.349       .  S
O334       Eu360   2.340       .  S
O335       Eu361   2.332       .  S
O335       Eu362   2.343       .  S
C336       C1530   1.476       .  S
C337       C1203   1.469       .  S
C338       C1480   1.475       .  S
C339        C880   1.462       .  S
H340        O341   0.964       .  S
O341       Eu362   2.336       .  S
O341       Eu360   2.357       .  S
H342        O343   0.966       .  S
O343       Eu361   2.356       .  S
O343       Eu363   2.349       .  S
O344        C367   1.292       .  A
O344       Eu360   2.463       .  S
O345        C368   1.287       .  A
O345       Eu361   2.430       .  S
O346        C369   1.293       .  A
O346       Eu362   2.468       .  S
O347        C370   1.290       .  A
O347       Eu363   2.451       .  S
O348        C371   1.294       .  A
O348       Eu363   2.477       .  S
O349        C372   1.287       .  A
O349       Eu362   2.427       .  S
O350        C373   1.294       .  A
O350       Eu364   2.471       .  S
O351        C374   1.288       .  A
O351       Eu364   2.445       .  S
O352        C373   1.288       .  A
O352       Eu362   2.434       .  S
O353        C374   1.290       .  A
O353       Eu363   2.448       .  S
O354        C369   1.285       .  A
O354       Eu360   2.424       .  S
O355        C372   1.294       .  A
O355       Eu361   2.476       .  S
O356        C371   1.289       .  A
O356       Eu361   2.441       .  S
O357        C370   1.288       .  A
O357       Eu360   2.439       .  S
O358        C367   1.285       .  A
O358       Eu364   2.418       .  S
O359        C368   1.291       .  A
O359       Eu364   2.461       .  S
Eu360       O378   2.347       .  S
Eu360       O366   2.337       .  S
Eu361       O365   2.349       .  S
Eu361       O376   2.349       .  S
Eu362       O376   2.363       .  S
Eu362       O366   2.334       .  S
Eu363       O365   2.343       .  S
Eu363       O378   2.352       .  S
Eu364       O365   2.339       .  S
Eu364       O376   2.336       .  S
Eu364       O378   2.362       .  S
Eu364       O366   2.343       .  S
C367       C1373   1.471       .  S
C368       C1220   1.473       .  S
C369       C1073   1.475       .  S
C370        C683   1.464       .  S
C371       C1150   1.478       .  S
C372        C663   1.469       .  S
C373        C733   1.478       .  S
C374       C1450   1.462       .  S
H375        O376   0.964       .  S
H377        O378   0.964       .  S
O379        C390   1.294       .  A
O379       Eu415   2.477   1_556  S
O380        C391   1.290       .  A
O380       Eu414   2.450       .  S
O381        C392   1.288       .  A
O381       Eu387   2.442   1_456  S
O382        C393   1.285       .  A
O382       Eu387   2.423       .  S
O383        C393   1.294       .  A
O383       Eu417   2.477       .  S
O384        C392   1.288       .  A
O384       Eu416   2.435   1_566  S
O385        C391   1.287       .  A
O385       Eu387   2.428   1_455  S
O386        C390   1.284       .  A
O386       Eu387   2.416   1_556  S
Eu387       O397   2.348       .  S
Eu387       O389   2.335   1_554  S
Eu387       O388   2.343       .  S
Eu387       O395   2.333   1_655  S
O388       Eu417   2.328       .  S
O388       Eu414   2.352   1_655  S
O389       Eu415   2.352   1_556  S
O389       Eu416   2.342   1_666  S
C390       C1460   1.467       .  S
C391        C710   1.464       .  S
C392       C1213   1.473       .  S
C393       C1380   1.475       .  S
H394        O395   0.964       .  S
O395       Eu416   2.349   1_565  S
O395       Eu414   2.354       .  S
H396        O397   0.964       .  S
O397       Eu415   2.338       .  S
O397       Eu417   2.343       .  S
O398        C421   1.292       .  A
O398       Eu414   2.467   1_545  S
O399        C422   1.291       .  A
O399       Eu415   2.461   1_545  S
O400        C423   1.292       .  A
O400       Eu416   2.461       .  S
O401        C424   1.289       .  A
O401       Eu417   2.451       .  S
O402        C425   1.285       .  A
O402       Eu417   2.416       .  S
O403        C426   1.292       .  A
O403       Eu416   2.459   1_556  S
O404        C427   1.292       .  A
O404       Eu418   2.469       .  S
O405        C428   1.293   1_545  A
O405       Eu418   2.465   1_655  S
O406        C427   1.288       .  A
O406       Eu416   2.438       .  S
O407        C428   1.287       .  A
O407       Eu417   2.431       .  S
O408        C423   1.289   1_565  A
O408       Eu414   2.445       .  S
O409        C426   1.285   1_655  A
O409       Eu415   2.423   1_546  S
O410        C425   1.291       .  A
O410       Eu415   2.457       .  S
O411        C424   1.286   1_455  A
O411       Eu414   2.433       .  S
O412        C421   1.283       .  A
O412       Eu418   2.413       .  S
O413        C422   1.290       .  A
O413       Eu418   2.448   1_655  S
Eu414       O432   2.345   1_455  S
Eu414       O420   2.341   1_565  S
Eu415       O419   2.337       .  S
Eu415       O430   2.362   1_665  S
Eu416       O430   2.353       .  S
Eu416       O420   2.338       .  S
Eu417       O419   2.353       .  S
Eu417       O432   2.350       .  S
Eu418       O419   2.336   1_445  S
Eu418       O430   2.337       .  S
Eu418       O432   2.354   1_445  S
Eu418       O420   2.347       .  S
C421       C1270   1.456       .  S
C422        C723   1.481       .  S
C423       C1080   1.471       .  S
C424        C760   1.454       .  S
C425       C1053   1.472       .  S
C426        C653   1.454       .  S
C427       C1350   1.472       .  S
C428        C953   1.477       .  S
H429        O430   0.965       .  S
H431        O432   0.965       .  S
O433        C444   1.288       .  A
O433       Eu469   2.436       .  S
O434        C445   1.294       .  A
O434       Eu468   2.479       .  S
O435        C446   1.287       .  A
O435       Eu441   2.430       .  S
O436        C447   1.291       .  A
O436       Eu441   2.462       .  S
O437        C447   1.287       .  A
O437       Eu471   2.432       .  S
O438        C446   1.296       .  A
O438       Eu470   2.484       .  S
O439        C445   1.290       .  A
O439       Eu441   2.450       .  S
O440        C444   1.291       .  A
O440       Eu441   2.451       .  S
Eu441       O451   2.343       .  S
Eu441       O443   2.352       .  S
Eu441       O442   2.342       .  S
Eu441       O449   2.353       .  S
O442       Eu471   2.355       .  S
O442       Eu468   2.343       .  S
O443       Eu469   2.353       .  S
O443       Eu470   2.349       .  S
C444       C1433   1.473       .  S
C445        C900   1.480       .  S
C446        C820   1.478       .  S
C447       C1003   1.469       .  S
H448        O449   0.965       .  S
O449       Eu470   2.341       .  S
O449       Eu468   2.346       .  S
H450        O451   0.965       .  S
O451       Eu469   2.359       .  S
O451       Eu471   2.349       .  S
O452        C475   1.290       .  A
O452       Eu468   2.453       .  S
O453        C476   1.290       .  A
O453       Eu469   2.454       .  S
O454        C477   1.292       .  A
O454       Eu470   2.457       .  S
O455        C478   1.286       .  A
O455       Eu471   2.421       .  S
O456        C479   1.291       .  A
O456       Eu471   2.450       .  S
O457        C480   1.288       .  A
O457       Eu470   2.435       .  S
O458        C481   1.289       .  A
O458       Eu472   2.440       .  S
O459        C482   1.287       .  A
O459       Eu472   2.433       .  S
O460        C481   1.292       .  A
O460       Eu470   2.462       .  S
O461        C482   1.292       .  A
O461       Eu471   2.463       .  S
O462        C477   1.287       .  A
O462       Eu468   2.439       .  S
O463        C480   1.294       .  A
O463       Eu469   2.472       .  S
O464        C479   1.289       .  A
O464       Eu469   2.447       .  S
O465        C478   1.291       .  A
O465       Eu468   2.457       .  S
O466        C475   1.293       .  A
O466       Eu472   2.471       .  S
O467        C476   1.294       .  A
O467       Eu472   2.480       .  S
Eu468       O486   2.353       .  S
Eu468       O474   2.358       .  S
Eu469       O473   2.346       .  S
Eu469       O484   2.342       .  S
Eu470       O484   2.364       .  S
Eu470       O474   2.347       .  S
Eu471       O473   2.329       .  S
Eu471       O486   2.341       .  S
Eu472       O473   2.344       .  S
Eu472       O484   2.351       .  S
Eu472       O486   2.344       .  S
Eu472       O474   2.352       .  S
C475       C1253   1.470       .  S
C476        C923   1.479       .  S
C477       C1303   1.471       .  S
C478        C970   1.464       .  S
C479       C1333   1.467       .  S
C480       C1130   1.473       .  S
C481       C1033   1.467       .  S
C482        C773   1.476       .  S
H483        O484   0.965       .  S
H485        O486   0.965       .  S
O487        C498   1.288       .  A
O487       Eu523   2.436       .  S
O488        C499   1.290       .  A
O488       Eu522   2.448       .  S
O489        C500   1.291       .  A
O489       Eu495   2.451       .  S
O490        C501   1.293       .  A
O490       Eu495   2.468       .  S
O491        C501   1.289       .  A
O491       Eu525   2.443       .  S
O492        C500   1.291       .  A
O492       Eu524   2.464       .  S
O493        C499   1.289       .  A
O493       Eu495   2.442       .  S
O494        C498   1.293       .  A
O494       Eu495   2.471       .  S
Eu495       O505   2.344       .  S
Eu495       O497   2.348       .  S
Eu495       O496   2.340       .  S
Eu495       O503   2.366       .  S
O496       Eu525   2.331       .  S
O496       Eu522   2.338       .  S
O497       Eu523   2.357       .  S
O497       Eu524   2.346       .  S
C498       C1523   1.472       .  S
C499       C1100   1.476       .  S
C500       C1173   1.472       .  S
C501        C803   1.476       .  S
H502        O503   0.965       .  S
O503       Eu524   2.356       .  S
O503       Eu522   2.348       .  S
H504        O505   0.966       .  S
O505       Eu523   2.354       .  S
O505       Eu525   2.355       .  S
O506        C529   1.289       .  A
O506       Eu522   2.443       .  S
O507        C530   1.293       .  A
O507       Eu523   2.466       .  S
O508        C531   1.290       .  A
O508       Eu524   2.453       .  S
O509        C532   1.294       .  A
O509       Eu525   2.474       .  S
O510        C533   1.288       .  A
O510       Eu525   2.432       .  S
O511        C534   1.292       .  A
O511       Eu524   2.464       .  S
O512        C535   1.292       .  A
O512       Eu526   2.464       .  S
O513        C536   1.290       .  A
O513       Eu526   2.450       .  S
O514        C535   1.288       .  A
O514       Eu524   2.440       .  S
O515        C536   1.291       .  A
O515       Eu525   2.454       .  S
O516        C531   1.291       .  A
O516       Eu522   2.450       .  S
O517        C534   1.292       .  A
O517       Eu523   2.461       .  S
O518        C533   1.295       .  A
O518       Eu523   2.485       .  S
O519        C532   1.287       .  A
O519       Eu522   2.439       .  S
O520        C529   1.293       .  A
O520       Eu526   2.469       .  S
O521        C530   1.289       .  A
O521       Eu526   2.442       .  S
Eu522       O540   2.352       .  S
Eu522       O528   2.343       .  S
Eu523       O527   2.342       .  S
Eu523       O538   2.351       .  S
Eu524       O538   2.358       .  S
Eu524       O528   2.359       .  S
Eu525       O527   2.348       .  S
Eu525       O540   2.332       .  S
Eu526       O527   2.353       .  S
Eu526       O538   2.362       .  S
Eu526       O540   2.355       .  S
Eu526       O528   2.339       .  S
C529       C1503   1.474       .  S
C530       C1230   1.470       .  S
C531        C873   1.472       .  S
C532       C1400   1.476       .  S
C533        C850   1.481       .  S
C534       C1470   1.484       .  S
C535        C673   1.466       .  S
C536       C1163   1.473       .  S
H537        O538   0.967       .  S
H539        O540   0.965       .  S
O541        C552   1.290       .  A
O541       Eu577   2.450       .  S
O542        C553   1.290       .  A
O542       Eu576   2.448       .  S
O543        C554   1.288       .  A
O543       Eu549   2.443       .  S
O544        C555   1.292       .  A
O544       Eu549   2.466       .  S
O545        C555   1.289       .  A
O545       Eu579   2.442       .  S
O546        C554   1.291       .  A
O546       Eu578   2.456       .  S
O547        C553   1.291       .  A
O547       Eu549   2.459       .  S
O548        C552   1.290       .  A
O548       Eu549   2.450       .  S
Eu549       O559   2.334       .  S
Eu549       O551   2.358       .  S
Eu549       O550   2.348       .  S
Eu549       O557   2.355       .  S
O550       Eu579   2.351       .  S
O550       Eu576   2.343       .  S
O551       Eu577   2.354       .  S
O551       Eu578   2.351       .  S
C552       C1360   1.467       .  S
C553        C963   1.469       .  S
C554       C1060   1.462       .  S
C555        C783   1.481       .  S
H556        O557   0.965       .  S
O557       Eu578   2.336       .  S
O557       Eu576   2.346       .  S
H558        O559   0.964       .  S
O559       Eu577   2.350       .  S
O559       Eu579   2.334       .  S
O560        C583   1.286       .  A
O560       Eu576   2.426       .  S
O561        C584   1.291       .  A
O561       Eu577   2.453       .  S
O562        C585   1.293       .  A
O562       Eu578   2.466       .  S
O563        C586   1.287       .  A
O563       Eu579   2.432       .  S
O564        C587   1.291       .  A
O564       Eu579   2.453       .  S
O565        C588   1.287       .  A
O565       Eu578   2.429       .  S
O566        C589   1.292       .  A
O566       Eu580   2.464       .  S
O567        C590   1.291       .  A
O567       Eu580   2.453       .  S
O568        C589   1.288       .  A
O568       Eu578   2.438       .  S
O569        C590   1.291       .  A
O569       Eu579   2.453       .  S
O570        C585   1.288       .  A
O570       Eu576   2.445       .  S
O571        C588   1.292       .  A
O571       Eu577   2.466       .  S
O572        C587   1.289       .  A
O572       Eu577   2.447       .  S
O573        C586   1.292       .  A
O573       Eu576   2.459       .  S
O574        C583   1.291       .  A
O574       Eu580   2.458       .  S
O575        C584   1.288       .  A
O575       Eu580   2.445       .  S
Eu576       O594   2.349       .  S
Eu576       O582   2.351       .  S
Eu577       O581   2.347       .  S
Eu577       O592   2.342       .  S
Eu578       O592   2.356       .  S
Eu578       O582   2.343       .  S
Eu579       O581   2.341       .  S
Eu579       O594   2.346       .  S
Eu580       O581   2.357       .  S
Eu580       O592   2.347       .  S
Eu580       O594   2.348       .  S
Eu580       O582   2.348       .  S
C583       C1313   1.468       .  S
C584        C983   1.467       .  S
C585       C1260   1.478       .  S
C586        C933   1.478       .  S
C587       C1280   1.467       .  S
C588        C700   1.464       .  S
C589        C753   1.468       .  S
C590       C1010   1.474       .  S
H591        O592   0.964       .  S
H593        O594   0.966       .  S
O595        C606   1.294       .  A
O595       Eu631   2.473   1_545  S
O596        C607   1.292       .  A
O596       Eu630   2.460   1_545  S
O597        C608   1.296   1_545  A
O597       Eu603   2.488       .  S
O598        C609   1.289       .  A
O598       Eu603   2.443       .  S
O599        C609   1.295       .  A
O599       Eu633   2.479   1_455  S
O600        C608   1.285       .  A
O600       Eu632   2.428       .  S
O601        C607   1.290       .  A
O601       Eu603   2.448       .  S
O602        C606   1.287   1_455  A
O602       Eu603   2.432       .  S
Eu603       O613   2.362   1_455  S
Eu603       O605   2.332   1_445  S
Eu603       O604   2.353       .  S
Eu603       O611   2.344   1_545  S
O604       Eu633   2.337   1_455  S
O604       Eu630   2.354   1_545  S
O605       Eu631   2.348       .  S
O605       Eu632   2.344   1_655  S
C606       C1513   1.478       .  S
C607       C1123   1.471       .  S
C608        C863   1.473       .  S
C609       C1413   1.479       .  S
H610        O611   0.966       .  S
O611       Eu632   2.350       .  S
O611       Eu630   2.363       .  S
H612        O613   0.965       .  S
O613       Eu631   2.341   1_545  S
O613       Eu633   2.353       .  S
O614        C637   1.296       .  A
O614       Eu630   2.486       .  S
O615        C638   1.289       .  A
O615       Eu631   2.449       .  S
O616        C639   1.291       .  A
O616       Eu632   2.461       .  S
O617        C640   1.294       .  A
O617       Eu633   2.474   1_455  S
O618        C641   1.289       .  A
O618       Eu633   2.449       .  S
O619        C642   1.289       .  A
O619       Eu632   2.445   1_655  S
O620        C643   1.293       .  A
O620       Eu634   2.471       .  S
O621        C644   1.293       .  A
O621       Eu634   2.470       .  S
O622        C643   1.288       .  A
O622       Eu632   2.435   1_655  S
O623        C644   1.288       .  A
O623       Eu633   2.438   1_565  S
O624        C639   1.290       .  A
O624       Eu630   2.450       .  S
O625        C642   1.287       .  A
O625       Eu631   2.431       .  S
O626        C641   1.292   1_565  A
O626       Eu631   2.461       .  S
O627        C640   1.289       .  A
O627       Eu630   2.442   1_545  S
O628        C637   1.288   1_655  A
O628       Eu634   2.435       .  S
O629        C638   1.296       .  A
O629       Eu634   2.484       .  S
Eu630       O648   2.348   1_455  S
Eu630       O636   2.344       .  S
Eu631       O635   2.343       .  S
Eu631       O646   2.364       .  S
Eu632       O646   2.357   1_455  S
Eu632       O636   2.342       .  S
Eu633       O635   2.359   1_545  S
Eu633       O648   2.355   1_545  S
Eu634       O635   2.346       .  S
Eu634       O646   2.346       .  S
Eu634       O648   2.361       .  S
Eu634       O636   2.359   1_655  S
C637       C1320   1.483       .  S
C638       C1110   1.486       .  S
C639        C810   1.477       .  S
C640       C1020   1.483       .  S
C641        C830   1.472       .  S
C642       C1183   1.458       .  S
C643       C1423   1.474       .  S
C644        C913   1.465       .  S
H645        O646   0.966       .  S
H647        O648   0.966       .  S
C649        C650   1.407   1_655  A
C649        C654   1.394       .  A
C649        F656   1.358       .  S
C650        C651   1.404       .  A
C651        C652   1.391       .  A
C651        F658   1.358       .  S
C652        C653   1.399       .  A
C652        F657   1.355       .  S
C653        C654   1.403   1_455  A
C654        F655   1.359       .  S
C659        C660   1.404       .  A
C659        C664   1.390       .  A
C659        F666   1.359       .  S
C660        C661   1.407       .  A
C661        C662   1.401       .  A
C661        F668   1.357       .  S
C662        C663   1.404       .  A
C662        F667   1.357       .  S
C663        C664   1.407       .  A
C664        F665   1.359       .  S
C669        C670   1.403       .  A
C669        C674   1.397       .  A
C669        F676   1.358       .  S
C670        C671   1.402       .  A
C671        C672   1.395       .  A
C671        F678   1.358       .  S
C672        C673   1.406       .  A
C672        F677   1.358       .  S
C673        C674   1.404       .  A
C674        F675   1.358       .  S
C679        C680   1.406       .  A
C679        C684   1.392       .  A
C679        F686   1.359       .  S
C680        C681   1.406       .  A
C681        C682   1.395       .  A
C681        F688   1.358       .  S
C682        C683   1.402       .  A
C682        F687   1.355       .  S
C683        C684   1.405       .  A
C684        F685   1.359       .  S
C689        C690   1.404       .  A
C689        C694   1.398       .  A
C689        F696   1.358       .  S
C690        C691   1.405       .  A
C691        C692   1.393       .  A
C691        F698   1.358       .  S
C692        C693   1.404       .  A
C692        F697   1.358       .  S
C693        C694   1.405       .  A
C694        F695   1.358       .  S
C699        C700   1.405       .  A
C699        C704   1.392       .  A
C699        F706   1.358       .  S
C700        C701   1.405       .  A
C701        C702   1.395       .  A
C701        F708   1.358       .  S
C702        C703   1.405       .  A
C702        F707   1.358       .  S
C703        C704   1.403       .  A
C704        F705   1.358       .  S
C709        C710   1.401       .  A
C709        C714   1.398       .  A
C709        F716   1.358       .  S
C710        C711   1.406       .  A
C711        C712   1.389       .  A
C711        F718   1.359   1_455  S
C712        C713   1.406       .  A
C712        F717   1.358   1_455  S
C713        C714   1.412       .  A
C714        F715   1.357       .  S
C719        C720   1.408       .  A
C719        C724   1.391       .  A
C719        F726   1.358       .  S
C720        C721   1.412       .  A
C721        C722   1.404       .  A
C721        F728   1.358   1_554  S
C722        C723   1.408       .  A
C722        F727   1.358       .  S
C723        C724   1.406       .  A
C724        F725   1.358       .  S
C729        C730   1.410       .  A
C729        C734   1.399       .  A
C729        F736   1.358       .  S
C730        C731   1.403       .  A
C731        C732   1.394       .  A
C731        F738   1.358       .  S
C732        C733   1.409       .  A
C732        F737   1.358       .  S
C733        C734   1.406       .  A
C734        F735   1.358       .  S
C739        C740   1.405       .  A
C739        C744   1.395       .  A
C739        F746   1.358       .  S
C740        C741   1.405       .  A
C741        C742   1.392   1_655  A
C741        F748   1.358   1_655  S
C742        C743   1.405   1_455  A
C742        F747   1.359       .  S
C743        C744   1.403       .  A
C744        F745   1.358       .  S
C749        C750   1.406       .  A
C749        C754   1.401       .  A
C749        F756   1.357       .  S
C750        C751   1.404       .  A
C751        C752   1.389       .  A
C751        F758   1.359       .  S
C752        C753   1.406       .  A
C752        F757   1.359       .  S
C753        C754   1.405       .  A
C754        F755   1.357       .  S
C759        C760   1.400       .  A
C759        C764   1.393       .  A
C759        F766   1.358   1_655  S
C760        C761   1.403       .  A
C761        C762   1.395       .  A
C761        F768   1.357       .  S
C762        C763   1.402       .  A
C762        F767   1.358       .  S
C763        C764   1.405       .  A
C764        F765   1.358   1_655  S
C769        C770   1.410       .  A
C769        C774   1.396       .  A
C769        F776   1.358       .  S
C770        C771   1.406       .  A
C771        C772   1.396       .  A
C771        F778   1.358       .  S
C772        C773   1.409       .  A
C772        F777   1.357       .  S
C773        C774   1.404       .  A
C774        F775   1.358       .  S
C779        C780   1.409       .  A
C779        C784   1.393       .  A
C779        F786   1.358       .  S
C780        C781   1.411       .  A
C781        C782   1.402       .  A
C781        F788   1.358       .  S
C782        C783   1.407       .  A
C782        F787   1.358       .  S
C783        C784   1.408       .  A
C784        F785   1.359       .  S
C789        C790   1.404       .  A
C789        C794   1.394       .  A
C789        F796   1.358       .  S
C790        C791   1.403       .  A
C791        C792   1.398       .  A
C791        F798   1.358       .  S
C792        C793   1.407       .  A
C792        F797   1.358       .  S
C793        C794   1.402       .  A
C794        F795   1.358       .  S
C799        C800   1.407       .  A
C799        C804   1.399       .  A
C799        F806   1.358       .  S
C800        C801   1.405       .  A
C801        C802   1.398       .  A
C801        F808   1.358       .  S
C802        C803   1.408       .  A
C802        F807   1.359       .  S
C803        C804   1.405       .  A
C804        F805   1.358       .  S
C809        C810   1.405       .  A
C809        C814   1.394       .  A
C809        F816   1.358       .  S
C810        C811   1.405       .  A
C811        C812   1.399       .  A
C811        F818   1.354       .  S
C812        C813   1.409       .  A
C812        F817   1.357       .  S
C813        C814   1.412       .  A
C814        F815   1.358       .  S
C819        C820   1.410       .  A
C819        C824   1.398       .  A
C819        F826   1.358       .  S
C820        C821   1.405       .  A
C821        C822   1.398       .  A
C821        F828   1.358       .  S
C822        C823   1.409       .  A
C822        F827   1.358       .  S
C823        C824   1.405       .  A
C824        F825   1.358       .  S
C829        C830   1.403   1_565  A
C829        C834   1.393       .  A
C829        F836   1.356       .  S
C830        C831   1.405       .  A
C831        C832   1.402       .  A
C831        F838   1.357       .  S
C832        C833   1.408       .  A
C832        F837   1.357       .  S
C833        C834   1.409   1_545  A
C834        F835   1.359       .  S
C839        C840   1.409       .  A
C839        C844   1.396       .  A
C839        F846   1.358       .  S
C840        C841   1.403   1_565  A
C841        C842   1.394   1_545  A
C841        F848   1.358       .  S
C842        C843   1.407       .  A
C842        F847   1.358       .  S
C843        C844   1.403       .  A
C844        F845   1.358       .  S
C849        C850   1.409       .  A
C849        C854   1.391       .  A
C849        F856   1.359       .  S
C850        C851   1.407       .  A
C851        C852   1.405       .  A
C851        F858   1.357       .  S
C852        C853   1.410       .  A
C852        F857   1.357       .  S
C853        C854   1.406       .  A
C854        F855   1.358       .  S
C859        C860   1.406       .  A
C859        C864   1.399       .  A
C859        F866   1.358       .  S
C860        C861   1.409       .  A
C861        C862   1.398       .  A
C861        F868   1.358       .  S
C862        C863   1.405       .  A
C862        F867   1.358       .  S
C863        C864   1.404       .  A
C864        F865   1.354       .  S
C869        C870   1.406       .  A
C869        C874   1.394       .  A
C869        F876   1.358       .  S
C870        C871   1.413       .  A
C871        C872   1.401       .  A
C871        F878   1.358       .  S
C872        C873   1.403       .  A
C872        F877   1.358       .  S
C873        C874   1.406       .  A
C874        F875   1.359       .  S
C879        C880   1.405       .  A
C879        C884   1.398       .  A
C879        F886   1.358       .  S
C880        C881   1.401       .  A
C881        C882   1.394       .  A
C881        F888   1.357       .  S
C882        C883   1.404       .  A
C882        F887   1.358       .  S
C883        C884   1.404       .  A
C884        F885   1.358       .  S
C889        C890   1.405       .  A
C889        C894   1.397       .  A
C889        F896   1.358       .  S
C890        C891   1.404       .  A
C891        C892   1.398       .  A
C891        F898   1.358       .  S
C892        C893   1.408       .  A
C892        F897   1.358       .  S
C893        C894   1.406       .  A
C894        F895   1.358       .  S
C899        C900   1.406       .  A
C899        C904   1.404       .  A
C899        F906   1.357       .  S
C900        C901   1.409       .  A
C901        C902   1.395       .  A
C901        F908   1.358       .  S
C902        C903   1.405       .  A
C902        F907   1.358       .  S
C903        C904   1.409       .  A
C904        F905   1.358       .  S
C909        C910   1.407       .  A
C909        C914   1.398       .  A
C909        F916   1.358       .  S
C910        C911   1.407       .  A
C911        C912   1.395       .  A
C911        F918   1.358       .  S
C912        C913   1.402       .  A
C912        F917   1.358       .  S
C913        C914   1.402       .  A
C914        F915   1.355       .  S
C919        C920   1.408       .  A
C919        C924   1.401       .  A
C919        F926   1.358       .  S
C920        C921   1.408       .  A
C921        C922   1.402       .  A
C921        F928   1.357       .  S
C922        C923   1.403       .  A
C922        F927   1.354       .  S
C923        C924   1.406       .  A
C924        F925   1.357       .  S
C929        C930   1.413       .  A
C929        C934   1.398       .  A
C929        F936   1.358       .  S
C930        C931   1.402       .  A
C931        C932   1.394       .  A
C931        F938   1.357       .  S
C932        C933   1.411       .  A
C932        F937   1.358       .  S
C933        C934   1.405       .  A
C934        F935   1.358       .  S
C939        C940   1.403       .  A
C939        C944   1.397       .  A
C939        F946   1.358       .  S
C940        C941   1.408       .  A
C941        C942   1.394       .  A
C941        F948   1.358       .  S
C942        C943   1.404       .  A
C942        F947   1.358       .  S
C943        C944   1.410       .  A
C944        F945   1.358       .  S
C949        C950   1.411   1_545  A
C949        C954   1.397       .  A
C949        F956   1.358       .  S
C950        C951   1.405       .  A
C951        C952   1.394       .  A
C951        F958   1.358       .  S
C952        C953   1.409       .  A
C952        F957   1.358       .  S
C953        C954   1.406   1_565  A
C954        F955   1.358       .  S
C959        C960   1.410       .  A
C959        C964   1.403       .  A
C959        F966   1.357       .  S
C960        C961   1.405       .  A
C961        C962   1.392       .  A
C961        F968   1.358       .  S
C962        C963   1.403       .  A
C962        F967   1.356       .  S
C963        C964   1.403       .  A
C964        F965   1.357       .  S
C969        C970   1.403       .  A
C969        C974   1.393       .  A
C969        F976   1.358       .  S
C970        C971   1.407       .  A
C971        C972   1.392       .  A
C971        F978   1.359       .  S
C972        C973   1.402       .  A
C972        F977   1.358       .  S
C973        C974   1.406       .  A
C974        F975   1.358       .  S
C979        C980   1.404   1_455  A
C979        C984   1.391       .  A
C979        F986   1.358       .  S
C980        C981   1.409       .  A
C981        C982   1.400   1_655  A
C981        F988   1.358       .  S
C982        C983   1.404       .  A
C982        F987   1.358       .  S
C983        C984   1.403       .  A
C984        F985   1.356       .  S
C989        C990   1.404       .  A
C989        C994   1.394       .  A
C989        F996   1.358       .  S
C990        C991   1.407       .  A
C991        C992   1.394       .  A
C991        F998   1.358       .  S
C992        C993   1.405       .  A
C992        F997   1.358       .  S
C993        C994   1.408       .  A
C994        F995   1.358       .  S
C999       C1000   1.407       .  A
C999       C1004   1.399       .  A
C999       F1006   1.358   1_655  S
C1000      C1001   1.404       .  A
C1001      C1002   1.392       .  A
C1001      F1008   1.359       .  S
C1002      C1003   1.407       .  A
C1002      F1007   1.359       .  S
C1003      C1004   1.403       .  A
C1004      F1005   1.357       .  S
C1009      C1010   1.407       .  A
C1009      C1014   1.397       .  A
C1009      F1016   1.358       .  S
C1010      C1011   1.406       .  A
C1011      C1012   1.397       .  A
C1011      F1018   1.358       .  S
C1012      C1013   1.405       .  A
C1012      F1017   1.358       .  S
C1013      C1014   1.404       .  A
C1014      F1015   1.358       .  S
C1019      C1020   1.407       .  A
C1019      C1024   1.398       .  A
C1019      F1026   1.358       .  S
C1020      C1021   1.411       .  A
C1021      C1022   1.399       .  A
C1021      F1028   1.358       .  S
C1022      C1023   1.407       .  A
C1022      F1027   1.358       .  S
C1023      C1024   1.408       .  A
C1024      F1025   1.358       .  S
C1029      C1030   1.408       .  A
C1029      C1034   1.393       .  A
C1029      F1036   1.358       .  S
C1030      C1031   1.409       .  A
C1031      C1032   1.398       .  A
C1031      F1038   1.357       .  S
C1032      C1033   1.401       .  A
C1032      F1037   1.354       .  S
C1033      C1034   1.404       .  A
C1034      F1035   1.356       .  S
C1039      C1040   1.404       .  A
C1039      C1044   1.397       .  A
C1039      F1046   1.358       .  S
C1040      C1041   1.406       .  A
C1041      C1042   1.395       .  A
C1041      F1048   1.358       .  S
C1042      C1043   1.404       .  A
C1042      F1047   1.358       .  S
C1043      C1044   1.406       .  A
C1044      F1045   1.358       .  S
C1049      C1050   1.407       .  A
C1049      C1054   1.390       .  A
C1049      F1056   1.358       .  S
C1050      C1051   1.410       .  A
C1051      C1052   1.397       .  A
C1051      F1058   1.357       .  S
C1052      C1053   1.404       .  A
C1052      F1057   1.358   1_554  S
C1053      C1054   1.409       .  A
C1054      F1055   1.359       .  S
C1059      C1060   1.401       .  A
C1059      C1064   1.393       .  A
C1059      F1066   1.358       .  S
C1060      C1061   1.404       .  A
C1061      C1062   1.397       .  A
C1061      F1068   1.355       .  S
C1062      C1063   1.403       .  A
C1062      F1067   1.358       .  S
C1063      C1064   1.405       .  A
C1064      F1065   1.358       .  S
C1069      C1070   1.403       .  A
C1069      C1074   1.395       .  A
C1069      F1076   1.358       .  S
C1070      C1071   1.410       .  A
C1071      C1072   1.395       .  A
C1071      F1078   1.358       .  S
C1072      C1073   1.404       .  A
C1072      F1077   1.358       .  S
C1073      C1074   1.411       .  A
C1074      F1075   1.358       .  S
C1079      C1080   1.406       .  A
C1079      C1084   1.402       .  A
C1079      F1086   1.358       .  S
C1080      C1081   1.403   1_554  A
C1081      C1082   1.392       .  A
C1081      F1088   1.359       .  S
C1082      C1083   1.408   1_556  A
C1082      F1087   1.358       .  S
C1083      C1084   1.409       .  A
C1084      F1085   1.358       .  S
C1089      C1090   1.407   1_565  A
C1089      C1094   1.393       .  A
C1089      F1096   1.358   1_554  S
C1090      C1091   1.403       .  A
C1091      C1092   1.397   1_545  A
C1091      F1098   1.357       .  S
C1092      C1093   1.406       .  A
C1092      F1097   1.358       .  S
C1093      C1094   1.402       .  A
C1094      F1095   1.358       .  S
C1099      C1100   1.407       .  A
C1099      C1104   1.396       .  A
C1099      F1106   1.358       .  S
C1100      C1101   1.410       .  A
C1101      C1102   1.393       .  A
C1101      F1108   1.358       .  S
C1102      C1103   1.403       .  A
C1102      F1107   1.358       .  S
C1103      C1104   1.409       .  A
C1104      F1105   1.358       .  S
C1109      C1110   1.405       .  A
C1109      C1114   1.395       .  A
C1109      F1116   1.357       .  S
C1110      C1111   1.411       .  A
C1111      C1112   1.403       .  A
C1111      F1118   1.356       .  S
C1112      C1113   1.410       .  A
C1112      F1117   1.358       .  S
C1113      C1114   1.410       .  A
C1114      F1115   1.357       .  S
C1119      C1120   1.410       .  A
C1119      C1124   1.401       .  A
C1119      F1126   1.358       .  S
C1120      C1121   1.408       .  A
C1121      C1122   1.393       .  A
C1121      F1128   1.358       .  S
C1122      C1123   1.405       .  A
C1122      F1127   1.359       .  S
C1123      C1124   1.404       .  A
C1124      F1125   1.356       .  S
C1129      C1130   1.405       .  A
C1129      C1134   1.399       .  A
C1129      F1136   1.358       .  S
C1130      C1131   1.407       .  A
C1131      C1132   1.394       .  A
C1131      F1138   1.358       .  S
C1132      C1133   1.404       .  A
C1132      F1137   1.358       .  S
C1133      C1134   1.408       .  A
C1134      F1135   1.358       .  S
C1139      C1140   1.405       .  A
C1139      C1144   1.396       .  A
C1139      F1146   1.358       .  S
C1140      C1141   1.403       .  A
C1141      C1142   1.394       .  A
C1141      F1148   1.358       .  S
C1142      C1143   1.408       .  A
C1142      F1147   1.358       .  S
C1143      C1144   1.406       .  A
C1144      F1145   1.358       .  S
C1149      C1150   1.406       .  A
C1149      C1154   1.401       .  A
C1149      F1156   1.358       .  S
C1150      C1151   1.408       .  A
C1151      C1152   1.397       .  A
C1151      F1158   1.358       .  S
C1152      C1153   1.403       .  A
C1152      F1157   1.358       .  S
C1153      C1154   1.409       .  A
C1154      F1155   1.358       .  S
C1159      C1160   1.410       .  A
C1159      C1164   1.403   1_655  A
C1159      F1166   1.358       .  S
C1160      C1161   1.409   1_655  A
C1161      C1162   1.392       .  A
C1161      F1168   1.358       .  S
C1162      C1163   1.404       .  A
C1162      F1167   1.359       .  S
C1163      C1164   1.406       .  A
C1164      F1165   1.358       .  S
C1169      C1170   1.408       .  A
C1169      C1174   1.403       .  A
C1169      F1176   1.358       .  S
C1170      C1171   1.405       .  A
C1171      C1172   1.391       .  A
C1171      F1178   1.359       .  S
C1172      C1173   1.406       .  A
C1172      F1177   1.359       .  S
C1173      C1174   1.406       .  A
C1174      F1175   1.357       .  S
C1179      C1180   1.409       .  A
C1179      C1184   1.393       .  A
C1179      F1186   1.358       .  S
C1180      C1181   1.408       .  A
C1181      C1182   1.392       .  A
C1181      F1188   1.358       .  S
C1182      C1183   1.402       .  A
C1182      F1187   1.359       .  S
C1183      C1184   1.401       .  A
C1184      F1185   1.359       .  S
C1189      C1190   1.406       .  A
C1189      C1194   1.395       .  A
C1189      F1196   1.358       .  S
C1190      C1191   1.405       .  A
C1191      C1192   1.396       .  A
C1191      F1198   1.358       .  S
C1192      C1193   1.404       .  A
C1192      F1197   1.358       .  S
C1193      C1194   1.406       .  A
C1194      F1195   1.359       .  S
C1199      C1200   1.408       .  A
C1199      C1204   1.400       .  A
C1199      F1206   1.357       .  S
C1200      C1201   1.407       .  A
C1201      C1202   1.393       .  A
C1201      F1208   1.359       .  S
C1202      C1203   1.406       .  A
C1202      F1207   1.359       .  S
C1203      C1204   1.403       .  A
C1204      F1205   1.357       .  S
C1209      C1210   1.409       .  A
C1209      C1214   1.397       .  A
C1209      F1216   1.358       .  S
C1210      C1211   1.404       .  A
C1211      C1212   1.389       .  A
C1211      F1218   1.358   1_565  S
C1212      C1213   1.407       .  A
C1212      F1217   1.356   1_565  S
C1213      C1214   1.407       .  A
C1214      F1215   1.358       .  S
C1219      C1220   1.405       .  A
C1219      C1224   1.401       .  A
C1219      F1226   1.358       .  S
C1220      C1221   1.409       .  A
C1221      C1222   1.390       .  A
C1221      F1228   1.358       .  S
C1222      C1223   1.403       .  A
C1222      F1227   1.359       .  S
C1223      C1224   1.408       .  A
C1224      F1225   1.357   1_655  S
C1229      C1230   1.404       .  A
C1229      C1234   1.395       .  A
C1229      F1236   1.358       .  S
C1230      C1231   1.404       .  A
C1231      C1232   1.399       .  A
C1231      F1238   1.356       .  S
C1232      C1233   1.409       .  A
C1232      F1237   1.358       .  S
C1233      C1234   1.408       .  A
C1234      F1235   1.358       .  S
C1239      C1240   1.404       .  A
C1239      C1244   1.391       .  A
C1239      F1246   1.358       .  S
C1240      C1241   1.407       .  A
C1241      C1242   1.399       .  A
C1241      F1248   1.358       .  S
C1242      C1243   1.407       .  A
C1242      F1247   1.358       .  S
C1243      C1244   1.404       .  A
C1244      F1245   1.358       .  S
C1249      C1250   1.408       .  A
C1249      C1254   1.403       .  A
C1249      F1256   1.358       .  S
C1250      C1251   1.405       .  A
C1251      C1252   1.397       .  A
C1251      F1258   1.358       .  S
C1252      C1253   1.403       .  A
C1252      F1257   1.356       .  S
C1253      C1254   1.404       .  A
C1254      F1255   1.358       .  S
C1259      C1260   1.404       .  A
C1259      C1264   1.395       .  A
C1259      F1266   1.358       .  S
C1260      C1261   1.408       .  A
C1261      C1262   1.401       .  A
C1261      F1268   1.356       .  S
C1262      C1263   1.409       .  A
C1262      F1267   1.358       .  S
C1263      C1264   1.409       .  A
C1264      F1265   1.358       .  S
C1269      C1270   1.403       .  A
C1269      C1274   1.395       .  A
C1269      F1276   1.359       .  S
C1270      C1271   1.399       .  A
C1271      C1272   1.393       .  A
C1271      F1278   1.358   1_545  S
C1272      C1273   1.408       .  A
C1272      F1277   1.358       .  S
C1273      C1274   1.407       .  A
C1274      F1275   1.358       .  S
C1279      C1280   1.405       .  A
C1279      C1284   1.393       .  A
C1279      F1286   1.359       .  S
C1280      C1281   1.403       .  A
C1281      C1282   1.397       .  A
C1281      F1288   1.355       .  S
C1282      C1283   1.409       .  A
C1282      F1287   1.358       .  S
C1283      C1284   1.408       .  A
C1284      F1285   1.358       .  S
C1289      C1290   1.406       .  A
C1289      C1294   1.396       .  A
C1289      F1296   1.358       .  S
C1290      C1291   1.407       .  A
C1291      C1292   1.398       .  A
C1291      F1298   1.358       .  S
C1292      C1293   1.406       .  A
C1292      F1297   1.358       .  S
C1293      C1294   1.407       .  A
C1294      F1295   1.358       .  S
C1299      C1300   1.409       .  A
C1299      C1304   1.402   1_565  A
C1299      F1306   1.358       .  S
C1300      C1301   1.406       .  A
C1301      C1302   1.391   1_565  A
C1301      F1308   1.358       .  S
C1302      C1303   1.402       .  A
C1302      F1307   1.355       .  S
C1303      C1304   1.406       .  A
C1304      F1305   1.358       .  S
C1309      C1310   1.410       .  A
C1309      C1314   1.397       .  A
C1309      F1316   1.358       .  S
C1310      C1311   1.401       .  A
C1311      C1312   1.390       .  A
C1311      F1318   1.358       .  S
C1312      C1313   1.408       .  A
C1312      F1317   1.359       .  S
C1313      C1314   1.404       .  A
C1314      F1315   1.358       .  S
C1319      C1320   1.406       .  A
C1319      C1324   1.400       .  A
C1319      F1326   1.357       .  S
C1320      C1321   1.410   1_455  A
C1321      C1322   1.395       .  A
C1321      F1328   1.355       .  S
C1322      C1323   1.403   1_655  A
C1322      F1327   1.359       .  S
C1323      C1324   1.410       .  A
C1324      F1325   1.358       .  S
C1329      C1330   1.408       .  A
C1329      C1334   1.399       .  A
C1329      F1336   1.358       .  S
C1330      C1331   1.407       .  A
C1331      C1332   1.390       .  A
C1331      F1338   1.358       .  S
C1332      C1333   1.404       .  A
C1332      F1337   1.359       .  S
C1333      C1334   1.405       .  A
C1334      F1335   1.357       .  S
C1339      C1340   1.405       .  A
C1339      C1344   1.392       .  A
C1339      F1346   1.358       .  S
C1340      C1341   1.407       .  A
C1341      C1342   1.393       .  A
C1341      F1348   1.358       .  S
C1342      C1343   1.405       .  A
C1342      F1347   1.358       .  S
C1343      C1344   1.405       .  A
C1344      F1345   1.358       .  S
C1349      C1350   1.403       .  A
C1349      C1354   1.402       .  A
C1349      F1356   1.357       .  S
C1350      C1351   1.405       .  A
C1351      C1352   1.394       .  A
C1351      F1358   1.359       .  S
C1352      C1353   1.408       .  A
C1352      F1357   1.358       .  S
C1353      C1354   1.411       .  A
C1354      F1355   1.357       .  S
C1359      C1360   1.400       .  A
C1359      C1364   1.392       .  A
C1359      F1366   1.355       .  S
C1360      C1361   1.404       .  A
C1361      C1362   1.397       .  A
C1361      F1368   1.358       .  S
C1362      C1363   1.410       .  A
C1362      F1367   1.358       .  S
C1363      C1364   1.411       .  A
C1364      F1365   1.358       .  S
C1369      C1370   1.401       .  A
C1369      C1374   1.391       .  A
C1369      F1376   1.358       .  S
C1370      C1371   1.411       .  A
C1371      C1372   1.394       .  A
C1371      F1378   1.358       .  S
C1372      C1373   1.403       .  A
C1372      F1377   1.358       .  S
C1373      C1374   1.411       .  A
C1374      F1375   1.359       .  S
C1379      C1380   1.402       .  A
C1379      C1384   1.397       .  A
C1379      F1386   1.357       .  S
C1380      C1381   1.410   1_554  A
C1381      C1382   1.394       .  A
C1381      F1388   1.359       .  S
C1382      C1383   1.408   1_556  A
C1382      F1387   1.359       .  S
C1383      C1384   1.410       .  A
C1384      F1385   1.357       .  S
C1389      C1390   1.403       .  A
C1389      C1394   1.393       .  A
C1389      F1396   1.359   1_554  S
C1390      C1391   1.400       .  A
C1391      C1392   1.395       .  A
C1391      F1398   1.358       .  S
C1392      C1393   1.407       .  A
C1392      F1397   1.358       .  S
C1393      C1394   1.404       .  A
C1394      F1395   1.358       .  S
C1399      C1400   1.404       .  A
C1399      C1404   1.397       .  A
C1399      F1406   1.358       .  S
C1400      C1401   1.410       .  A
C1401      C1402   1.399       .  A
C1401      F1408   1.358       .  S
C1402      C1403   1.403       .  A
C1402      F1407   1.358       .  S
C1403      C1404   1.408       .  A
C1404      F1405   1.358       .  S
C1409      C1410   1.408       .  A
C1409      C1414   1.402       .  A
C1409      F1416   1.357       .  S
C1410      C1411   1.406       .  A
C1411      C1412   1.396       .  A
C1411      F1418   1.358       .  S
C1412      C1413   1.410       .  A
C1412      F1417   1.359       .  S
C1413      C1414   1.405       .  A
C1414      F1415   1.357       .  S
C1419      C1420   1.412       .  A
C1419      C1424   1.400       .  A
C1419      F1426   1.358       .  S
C1420      C1421   1.405       .  A
C1421      C1422   1.394       .  A
C1421      F1428   1.358   1_655  S
C1422      C1423   1.406       .  A
C1422      F1427   1.355   1_655  S
C1423      C1424   1.402       .  A
C1424      F1425   1.357       .  S
C1429      C1430   1.408       .  A
C1429      C1434   1.392       .  A
C1429      F1436   1.358       .  S
C1430      C1431   1.404       .  A
C1431      C1432   1.393       .  A
C1431      F1438   1.358       .  S
C1432      C1433   1.409       .  A
C1432      F1437   1.358       .  S
C1433      C1434   1.406       .  A
C1434      F1435   1.358       .  S
C1439      C1440   1.412       .  A
C1439      C1444   1.396   1_655  A
C1439      F1446   1.358       .  S
C1440      C1441   1.403       .  A
C1441      C1442   1.395       .  A
C1441      F1448   1.358       .  S
C1442      C1443   1.408   1_655  A
C1442      F1447   1.358       .  S
C1443      C1444   1.403       .  A
C1444      F1445   1.358       .  S
C1449      C1450   1.403       .  A
C1449      C1454   1.398       .  A
C1449      F1456   1.358       .  S
C1450      C1451   1.403       .  A
C1451      C1452   1.390       .  A
C1451      F1458   1.357       .  S
C1452      C1453   1.403       .  A
C1452      F1457   1.359       .  S
C1453      C1454   1.406       .  A
C1454      F1455   1.358       .  S
C1459      C1460   1.408       .  A
C1459      C1464   1.392       .  A
C1459      F1466   1.358       .  S
C1460      C1461   1.404       .  A
C1461      C1462   1.397       .  A
C1461      F1468   1.358       .  S
C1462      C1463   1.405       .  A
C1462      F1467   1.358       .  S
C1463      C1464   1.399       .  A
C1464      F1465   1.358       .  S
C1469      C1470   1.408       .  A
C1469      C1474   1.396       .  A
C1469      F1476   1.356       .  S
C1470      C1471   1.409       .  A
C1471      C1472   1.401       .  A
C1471      F1478   1.358       .  S
C1472      C1473   1.409       .  A
C1472      F1477   1.359       .  S
C1473      C1474   1.403       .  A
C1474      F1475   1.358       .  S
C1479      C1480   1.405       .  A
C1479      C1484   1.403   1_545  A
C1479      F1486   1.358       .  S
C1480      C1481   1.408       .  A
C1481      C1482   1.392       .  A
C1481      F1488   1.357       .  S
C1482      C1483   1.403   1_545  A
C1482      F1487   1.358   1_545  S
C1483      C1484   1.410       .  A
C1484      F1485   1.357       .  S
C1489      C1490   1.405       .  A
C1489      C1494   1.391       .  A
C1489      F1496   1.358       .  S
C1490      C1491   1.404       .  A
C1491      C1492   1.397       .  A
C1491      F1498   1.358       .  S
C1492      C1493   1.405       .  A
C1492      F1497   1.358       .  S
C1493      C1494   1.402       .  A
C1494      F1495   1.358       .  S
C1499      C1500   1.405       .  A
C1499      C1504   1.394       .  A
C1499      F1506   1.359       .  S
C1500      C1501   1.408       .  A
C1501      C1502   1.400       .  A
C1501      F1508   1.357       .  S
C1502      C1503   1.404       .  A
C1502      F1507   1.357       .  S
C1503      C1504   1.409       .  A
C1504      F1505   1.359       .  S
C1509      C1510   1.404   1_455  A
C1509      C1514   1.393       .  A
C1509      F1516   1.359       .  S
C1510      C1511   1.409       .  A
C1511      C1512   1.397       .  A
C1511      F1518   1.358       .  S
C1512      C1513   1.406       .  A
C1512      F1517   1.358       .  S
C1513      C1514   1.410   1_655  A
C1514      F1515   1.356       .  S
C1519      C1520   1.410       .  A
C1519      C1524   1.404       .  A
C1519      F1526   1.358       .  S
C1520      C1521   1.404       .  A
C1521      C1522   1.390       .  A
C1521      F1528   1.358       .  S
C1522      C1523   1.406       .  A
C1522      F1527   1.358       .  S
C1523      C1524   1.405       .  A
C1524      F1525   1.358       .  S
C1529      C1530   1.408       .  A
C1529      C1534   1.392       .  A
C1529      F1536   1.358       .  S
C1530      C1531   1.407       .  A
C1531      C1532   1.395       .  A
C1531      F1538   1.359       .  S
C1532      C1533   1.411       .  A
C1532      F1537   1.358       .  S
C1533      C1534   1.405       .  A
C1534      F1535   1.358       .  S
C1539      C1540   1.401       .  A
C1539      C1544   1.394       .  A
C1539      F1546   1.358       .  S
C1540      C1541   1.407       .  A
C1541      C1542   1.395       .  A
C1541      F1548   1.358       .  S
C1542      C1543   1.402       .  A
C1542      F1547   1.358       .  S
C1543      C1544   1.406       .  A
C1544      F1545   1.358       .  S
