geometry optimzed in LAMMPS
_audit_creation_date              2020-11-30 
_audit_creation_method            'lammps2cif' 
_symmetry_space_group_name_H-M    'P1' 
_symmetry_Int_Tables_number       1 
_symmetry_cell_setting            triclinic 
loop_ 
_symmetry_equiv_pos_as_xyz 
  x,y,z 
_cell_length_a                    47.56129929 
_cell_length_b                    48.406842217266004 
_cell_length_c                    89.39663323159333 
_cell_angle_alpha                 89.33526024783949 
_cell_angle_beta                  90.60407768866008 
_cell_angle_gamma                 90.19785435948933 
loop_ 
_atom_site_label 
_atom_site_type_symbol 
_atom_site_fract_x 
_atom_site_fract_y 
_atom_site_fract_z 
_atom_site_charge 
N1          N  0.38863656  0.25044521  0.40756689    -0.35100
N2          N  0.40172849  0.20912637  0.38563115    -0.55700
N3          N  0.40963519  0.25220781  0.36282153    -0.35100
N4          N  0.39803888  0.29334393  0.38543655    -0.55700
C5          C  0.39143304  0.22793244  0.41652703     0.28500
C6          C  0.38976123  0.27288454  0.41642828     0.28500
C7          C  0.42198909  0.23023968  0.35633663     0.28500
C8          C  0.42016370  0.27542022  0.35627417     0.28500
C9          C  0.39263683  0.19228563  0.39674742     0.37100
C10         C  0.40434746  0.19322807  0.37342071     0.37100
C11         C  0.38670366  0.30863043  0.39637847     0.37100
C12         C  0.39801901  0.30941286  0.37299514     0.37100
C13         C  0.39413691  0.23611971  0.43129432    -0.20400
C14         C  0.39310208  0.26454239  0.43122891    -0.20400
C15         C  0.44007352  0.23955595  0.34529347    -0.20400
C16         C  0.43906227  0.26803470  0.34531674    -0.20400
C17         C  0.38931866  0.16558828  0.39156529    -0.21500
C18         C  0.39683025  0.16616588  0.37677878    -0.21500
C19         C  0.37918921  0.33444826  0.39085402    -0.21500
C20         C  0.38622294  0.33489634  0.37599835    -0.21500
C21         C  0.38969482  0.20022621  0.41179357    -0.16800
C22         C  0.38558977  0.30044210  0.41155472    -0.16800
C23         C  0.41267172  0.30297760  0.35982316    -0.16800
C24         C  0.41695646  0.20203444  0.35995604    -0.16800
H25         H  0.39627091  0.22296926  0.44111373     0.16100
H26         H  0.39419360  0.27754677  0.44098668     0.16100
H27         H  0.45296520  0.22713673  0.33809301     0.16100
H28         H  0.45106601  0.28169830  0.33813670     0.16100
H29         H  0.38295433  0.14745149  0.39788301     0.14400
H30         H  0.39750128  0.14853414  0.36945456     0.14400
H31         H  0.37030290  0.35142695  0.39697700     0.14400
H32         H  0.38402525  0.35237222  0.36841778     0.14400
H33         H  0.38276197  0.25033498  0.39634356     0.27600
H34         H  0.39332372  0.25131124  0.37047998     0.27600
N35         N  0.18259798  0.25833523  0.37136656    -0.35100
N36         N  0.18122390  0.29827659  0.39519550    -0.55700
N37         N  0.18630944  0.25392282  0.41748836    -0.35100
N38         N  0.18978093  0.21397880  0.39323712    -0.55700
C39         C  0.18398861  0.28194906  0.36319454     0.28500
C40         C  0.18890882  0.23732008  0.36219419     0.28500
C41         C  0.19165754  0.27615647  0.42618906     0.28500
C42         C  0.19442090  0.23101307  0.42524015     0.28500
C43         C  0.17425615  0.31513346  0.38357791     0.37100
C44         C  0.17813688  0.31320093  0.40774285     0.37100
C45         C  0.18589472  0.19872265  0.38079359     0.37100
C46         C  0.18749129  0.19634287  0.40499553     0.37100
C47         C  0.19115504  0.27587383  0.34860073    -0.20400
C48         C  0.19428903  0.24766997  0.34797300    -0.20400
C49         C  0.20248497  0.26713566  0.43985592    -0.20400
C50         C  0.20413351  0.23869570  0.43927683    -0.20400
C51         C  0.16668422  0.34088081  0.38874513    -0.21500
C52         C  0.16937752  0.33976767  0.40400103    -0.21500
C53         C  0.18144431  0.17127638  0.38464113    -0.21500
C54         C  0.18262696  0.16972078  0.39994070    -0.21500
C55         C  0.17705976  0.30853628  0.36831611    -0.16800
C56         C  0.18724211  0.20894666  0.36595301    -0.16800
C57         C  0.19241988  0.20335560  0.42012934    -0.16800
C58         C  0.18607435  0.30422516  0.42232231    -0.16800
H59         H  0.19337436  0.29019367  0.33929697     0.16100
H60         H  0.19932586  0.23603653  0.33809185     0.16100
H61         H  0.20844868  0.27970579  0.44931352     0.16100
H62         H  0.21169156  0.22523700  0.44818356     0.16100
H63         H  0.16072640  0.35891045  0.38219174     0.14400
H64         H  0.16584977  0.35692374  0.41137271     0.14400
H65         H  0.17799599  0.15407606  0.37720657     0.14400
H66         H  0.18046712  0.15096784  0.40652925     0.14400
H67         H  0.17411461  0.25631646  0.38197165     0.27600
H68         H  0.17551639  0.25408927  0.40732836     0.27600
O69         O  0.30197476  0.44163459  0.48910580    -0.78700
O70         O  0.32192606  0.04729076  0.51753356    -0.78700
O71         O  0.33880212  0.02941675  0.48467278    -0.78700
O72         O  0.29924471  0.47455397  0.53490006    -0.78600
O73         O  0.30867891  0.06128242  0.49068307    -0.78800
O74         O  0.31772882  0.45422661  0.51624447    -0.78700
O75         O  0.30221654  0.02818930  0.53641654    -0.78700
O76         O  0.33274035  0.47250795  0.48177389    -0.78700
C77         C  0.32462303  0.44759299  0.48238230     1.11000
C78         C  0.32031145  0.04475910  0.53138745     1.10900
C79         C  0.33183282  0.05458745  0.48490313     1.11100
C80         C  0.31618167  0.45700221  0.53009073     1.10900
O81         O  0.26566290  0.43293604  0.51256693    -0.78700
O82         O  0.25443752  0.03389923  0.49233824    -0.78700
O83         O  0.27476245  0.47407796  0.47223160    -0.78700
O84         O  0.24855497  0.03393935  0.52135111    -0.78600
O85         O  0.27129490  0.07107226  0.51282448    -0.78700
O86         O  0.24946714  0.47160276  0.49228441    -0.78700
O87         O  0.24499384  0.47071019  0.52118885    -0.78600
O88         O  0.28196388  0.03131553  0.47320089    -0.78700
Co89       Co  0.28360453  0.46452153  0.50481435     1.51500
Co90       Co  0.28782758  0.03881020  0.50577415     1.51700
Co91       Co  0.30864869  0.00212934  0.48062909     1.51600
Co92       Co  0.27673434  0.00181669  0.52553290     1.51500
O93         O  0.29960497  0.00129235  0.50353856    -1.40600
C94         C  0.24679975  0.44389496  0.52043348     1.11000
C95         C  0.25888389  0.03891962  0.47869271     1.11100
C96         C  0.25203238  0.46718120  0.47851969     1.11000
C97         C  0.25123656  0.06061365  0.52018315     1.11000
N98         N  0.37815300  0.25042881  0.60210827    -0.35100
N99         N  0.39537066  0.20885105  0.62377114    -0.55700
N100        N  0.40442532  0.25154508  0.64619024    -0.35100
N101        N  0.38961205  0.29327293  0.62416344    -0.55700
C102        C  0.38014340  0.22820000  0.59311791     0.28500
C103        C  0.37782574  0.27323536  0.59320808     0.28500
C104        C  0.41762813  0.22983261  0.65278822     0.28500
C105        C  0.41351795  0.27462735  0.65317224     0.28500
C106        C  0.38539156  0.19204215  0.61295637     0.37100
C107        C  0.39982319  0.19277448  0.63601493     0.37100
C108        C  0.37793927  0.30889284  0.61316445     0.37100
C109        C  0.39101518  0.30940316  0.63639069     0.37100
C110        C  0.38060596  0.23697168  0.57830405    -0.20400
C111        C  0.37916257  0.26540183  0.57836037    -0.20400
C112        C  0.43491844  0.23920444  0.66427436    -0.20400
C113        C  0.43238224  0.26747038  0.66448474    -0.20400
C114        C  0.38335562  0.16517761  0.61839177    -0.21500
C115        C  0.39268456  0.16560876  0.63296735    -0.21500
C116        C  0.37193133  0.33504694  0.61843995    -0.21500
C117        C  0.38017357  0.33533498  0.63317546    -0.21500
C118        C  0.38036462  0.20019988  0.59791964    -0.16800
C119        C  0.37491594  0.30078794  0.59810549    -0.16800
C120        C  0.40448866  0.30188011  0.64994441    -0.16800
C121        C  0.41329789  0.20171033  0.64925814    -0.16800
H122        H  0.38181584  0.22421162  0.56847082     0.16100
H123        H  0.37896095  0.27877518  0.56857310     0.16100
H124        H  0.44791089  0.22698963  0.67181862     0.16100
H125        H  0.44319633  0.28117079  0.67212540     0.16100
H126        H  0.37654051  0.14702227  0.61238262     0.14400
H127        H  0.39459136  0.14782212  0.64034673     0.14400
H128        H  0.36301438  0.35230992  0.61224533     0.14400
H129        H  0.37894692  0.35282191  0.64057371     0.14400
H130        H  0.37424220  0.24995713  0.61351285     0.27600
H131        H  0.38803997  0.25040178  0.63843420     0.27600
N132        N  0.18144855  0.24582003  0.63967393    -0.35100
N133        N  0.18045285  0.20525753  0.61628460    -0.55700
N134        N  0.17849590  0.24930599  0.59415375    -0.35100
N135        N  0.17761408  0.28990326  0.61715636    -0.55700
C136        C  0.17479999  0.22246714  0.64733191     0.28500
C137        C  0.17227276  0.26730828  0.64777148     0.28500
C138        C  0.17330071  0.22727191  0.58544343     0.28500
C139        C  0.17303848  0.27215296  0.58584776     0.28500
C140        C  0.18852792  0.18941047  0.62805794     0.37100
C141        C  0.18693584  0.19101223  0.60393358     0.37100
C142        C  0.18238065  0.30486545  0.62954929     0.37100
C143        C  0.18313371  0.30673045  0.60540477     0.37100
C144        C  0.16124641  0.22919716  0.66044970    -0.20400
C145        C  0.15976375  0.25755385  0.66076055    -0.20400
C146        C  0.16406953  0.23616270  0.57142834    -0.20400
C147        C  0.16396425  0.26460875  0.57167756    -0.20400
C148        C  0.20018876  0.16495312  0.62320758    -0.21500
C149        C  0.19904938  0.16589646  0.60786227    -0.21500
C150        C  0.19067486  0.33145561  0.62571948    -0.21500
C151        C  0.19137383  0.33259178  0.61035676    -0.21500
C152        C  0.18197957  0.19544700  0.64297580    -0.16800
C153        C  0.17645687  0.29546238  0.64412447    -0.16800
C154        C  0.17912335  0.29937797  0.59031320    -0.16800
C155        C  0.18070420  0.19989891  0.58921207    -0.16800
H156        H  0.15331712  0.21519355  0.66894567     0.16100
H157        H  0.15058614  0.26961081  0.66957434     0.16100
H158        H  0.15914185  0.22351634  0.56183803     0.16100
H159        H  0.15877137  0.27818970  0.56235611     0.16100
H160        H  0.20799945  0.14796718  0.63002803     0.14400
H161        H  0.20605279  0.14982934  0.60046641     0.14400
H162        H  0.19537355  0.34829533  0.63321355     0.14400
H163        H  0.19677929  0.35051795  0.60361937     0.14400
H164        H  0.19414334  0.24714752  0.63027318     0.27600
H165        H  0.18952554  0.24885347  0.60423361     0.27600
C166        C  0.01420920  0.07020255  0.28909231     0.43900
N167        N  0.03966587  0.05909343  0.27047937     0.02800
C168        C  0.03775979  0.43586191  0.23131253    -0.05000
H169        H  0.05545753  0.42218102  0.28798455     0.08300
C170        C  0.14074247  0.48137173  0.28569346    -0.05400
Co171      Co  0.01849847  0.50377451  0.25749335     0.74200
N172        N  0.04415501  0.45767631  0.27473177    -0.24600
Co173      Co  0.07412856  0.45792800  0.25812530     0.74100
C174        C  0.13058619  0.45689694  0.29380794     0.44000
N175        N  0.12205340  0.04574061  0.27052185     0.02400
N176        N  0.10502770  0.46317790  0.27430685     0.02500
N177        N  0.49625656  0.46430981  0.23319307    -0.45400
H178        H  0.47681269  0.02951948  0.28424203     0.08300
N179        N  0.02299319  0.47513263  0.27504913     0.02800
N180        N  0.10517135  0.45860958  0.24183210     0.02600
C181        C  0.13585951  0.44653420  0.22578271     0.44200
N182        N  0.10130592  0.06377160  0.26957648    -0.24000
C183        C  0.49327098  0.04244759  0.22747937    -0.05000
N184        N  0.03580548  0.07841395  0.28049477    -0.45100
N185        N  0.11199224  0.43835844  0.23266747    -0.45400
C186        C  0.00438013  0.06614158  0.22152826     0.44000
N187        N  0.02056325  0.47138900  0.24244690     0.02800
N188        N  0.09992208  0.06190261  0.23718297    -0.24100
N189        N  0.02192143  0.03825762  0.27188932    -0.24500
N190        N  0.12097271  0.04430436  0.23811702     0.02500
H191        H  0.09183561  0.09709997  0.22279080     0.08400
H192        H  0.16164302  0.48624845  0.22938230     0.08400
N193        N  0.04215886  0.45437731  0.24218557    -0.24600
N194        N  0.12306439  0.48395713  0.27389658    -0.24200
N195        N  0.03640811  0.05756932  0.23802234     0.02800
C196        C  0.01681790  0.44806178  0.29397992     0.44200
C197        C  0.10606144  0.08398576  0.27932911    -0.05500
N198        N  0.12330645  0.47926260  0.24145666    -0.24200
H199        H  0.15851145  0.49462903  0.28813535     0.08400
N200        N  0.49678907  0.46916910  0.28682338    -0.45400
H201        H  0.09331870  0.10226557  0.28057132     0.08400
C202        C  0.13175982  0.07051946  0.21954470     0.44100
C203        C  0.49469963  0.04248702  0.28169508    -0.05000
Co204      Co  0.06925601  0.06114069  0.25365669     0.73800
N205        N  0.14148019  0.05283257  0.28055906    -0.45100
C206        C  0.01053798  0.44348736  0.22473277     0.44300
N207        N  0.02889394  0.07560761  0.22740632    -0.45100
Co208      Co  0.12429999  0.01434762  0.25471480     0.73900
C209        C  0.14332840  0.47360104  0.23158645    -0.05500
C210        C  0.04207662  0.43993776  0.28617367    -0.05000
N211        N  0.01810054  0.03718351  0.23949636    -0.24600
N212        N  0.10879992  0.44663623  0.28597608    -0.45300
H213        H  0.05102999  0.41836405  0.22898955     0.08300
C214        C  0.10482969  0.07956857  0.22575743    -0.05400
Cl215      Cl  0.06983651  0.50814106  0.25614884    -0.48400
C216        C  0.13251805  0.07669437  0.28659815     0.44100
H217        H  0.47492102  0.02962974  0.22565296     0.08300
N218        N  0.14014439  0.04870205  0.22785987    -0.52600
O219        O  0.99535122  0.21551285  0.99452514    -0.78700
O220        O  0.09485590  0.20435333  0.01301815    -0.78700
O221        O  0.09336850  0.21053264  0.97564659    -0.78700
O222        O  0.03528413  0.22370247  0.03685373    -0.78600
O223        O  0.12818371  0.22507171  0.99043406    -0.78800
O224        O  0.03226165  0.20097473  0.01603956    -0.78700
O225        O  0.09266834  0.22452275  0.03482844    -0.78700
O226        O  0.03373749  0.21056860  0.98062227    -0.78700
C227        C  0.00688844  0.20690002  0.98270211     1.11000
C228        C  0.10072729  0.20455650  0.02687748     1.10900
C229        C  0.11993304  0.21326939  0.97830537     1.11100
C230        C  0.02759875  0.20245191  0.02986786     1.10900
O231        O  0.00058240  0.25169385  0.01931880    -0.78700
O232        O  0.10490222  0.27639251  0.99276605    -0.78700
O233        O  0.04930817  0.25682359  0.97569984    -0.78700
O234        O  0.09041678  0.28245246  0.02817199    -0.78600
O235        O  0.12277519  0.25628583  0.01818623    -0.78700
O236        O  0.01545471  0.26677269  0.99137951    -0.78700
O237        O  0.03202057  0.27985301  0.02960546    -0.78600
O238        O  0.07844566  0.26079855  0.97537369    -0.78700
Co239      Co  0.02507173  0.23464150  0.00373564     1.51500
Co240      Co  0.09752641  0.24039337  0.00233562     1.51700
Co241      Co  0.06937183  0.22950831  0.99021998     1.51600
Co242      Co  0.06265335  0.25278767  0.03117558     1.51500
O243        O  0.05946845  0.25176939  0.00876565    -1.40600
C244        C  0.00673553  0.27179487  0.02792709     1.11000
C245        C  0.09808140  0.27735224  0.97927357     1.11100
C246        C  0.02635348  0.26981296  0.97869274     1.11000
C247        C  0.11599416  0.27620754  0.02659915     1.11000
N248        N  0.26807025  0.33431426  0.88850092    -0.35100
N249        N  0.31331859  0.31887181  0.90964232    -0.55700
N250        N  0.35326723  0.33354322  0.88687643    -0.35100
N251        N  0.30808112  0.34597014  0.86535888    -0.55700
C252        C  0.25346999  0.32204762  0.89964112     0.28500
C253        C  0.25069880  0.33592037  0.87639897     0.28500
C254        C  0.37050036  0.32123126  0.89707171     0.28500
C255        C  0.36775734  0.33592924  0.87400697     0.28500
C256        C  0.29140268  0.31933969  0.91914105     0.37100
C257        C  0.33702950  0.31832639  0.91816440     0.37100
C258        C  0.28472282  0.35567718  0.85837995     0.37100
C259        C  0.33016727  0.35623829  0.85771829     0.37100
C260        C  0.22656318  0.31566897  0.89452959    -0.20400
C261        C  0.22481810  0.32448944  0.87987114    -0.20400
C262        C  0.39614221  0.31556759  0.89053993    -0.20400
C263        C  0.39443568  0.32493651  0.87599113    -0.20400
C264        C  0.30120623  0.31859217  0.93380394    -0.21500
C265        C  0.33015159  0.31789224  0.93318009    -0.21500
C266        C  0.29196892  0.37170474  0.84605976    -0.21500
C267        C  0.32082372  0.37210673  0.84565425    -0.21500
C268        C  0.26272460  0.31907040  0.91468459    -0.16800
C269        C  0.25697020  0.34931903  0.86270174    -0.16800
C270        C  0.35859749  0.35031846  0.86104515    -0.16800
C271        C  0.36467102  0.31743392  0.91244344    -0.16800
H272        H  0.20969981  0.30616945  0.90082024     0.16100
H273        H  0.20644675  0.32308329  0.87266681     0.16100
H274        H  0.41445418  0.30629855  0.89581960     0.16100
H275        H  0.41116638  0.32431553  0.86788807     0.16100
H276        H  0.28880058  0.31844459  0.94388420     0.14400
H277        H  0.34447147  0.31720135  0.94266591     0.14400
H278        H  0.27795855  0.38203872  0.83820489     0.14400
H279        H  0.33346427  0.38272356  0.83737650     0.14400
H280        H  0.28721058  0.34436202  0.88978470     0.27600
H281        H  0.33447074  0.34336829  0.88909376     0.27600
N282        N  0.31610978  0.18540209  0.89545848    -0.35100
N283        N  0.27260697  0.17947992  0.87225988    -0.55700
N284        N  0.31576379  0.15833412  0.85261120    -0.35100
N285        N  0.35904936  0.16731360  0.87516427    -0.55700
C286        C  0.29405238  0.19756891  0.90208280     0.28500
C287        C  0.33944979  0.19200641  0.90345582     0.28500
C288        C  0.29371860  0.16016352  0.84299979     0.28500
C289        C  0.33907048  0.15470957  0.84433799     0.28500
C290        C  0.25617456  0.18269905  0.88437224     0.37100
C291        C  0.25599838  0.16841899  0.86147339     0.37100
C292        C  0.37468117  0.16812614  0.88783092     0.37100
C293        C  0.37448496  0.15370650  0.86506257     0.37100
C294        C  0.30346031  0.21223700  0.91441952    -0.20400
C295        C  0.33215157  0.20871428  0.91528602    -0.20400
C296        C  0.30307393  0.15766673  0.82844517    -0.20400
C297        C  0.33172593  0.15424697  0.82928428    -0.20400
C298        C  0.22884736  0.17448428  0.88108060    -0.21500
C299        C  0.22873436  0.16551353  0.86657075    -0.21500
C300        C  0.40038276  0.15540699  0.88569266    -0.21500
C301        C  0.40027869  0.14630911  0.87123423    -0.21500
C302        C  0.26546720  0.19286685  0.89838403    -0.16800
C303        C  0.36667672  0.18139788  0.90106860    -0.16800
C304        C  0.36632260  0.14936094  0.85007520    -0.16800
C305        C  0.26516332  0.16063982  0.84712324    -0.16800
H306        H  0.29082737  0.22358118  0.92224410     0.16100
H307        H  0.34594167  0.21686566  0.92388443     0.16100
H308        H  0.29043386  0.15752985  0.81830507     0.16100
H309        H  0.34544795  0.15098925  0.81989107     0.16100
H310        H  0.21092190  0.17440792  0.88843414     0.14400
H311        H  0.21075734  0.15722813  0.86058381     0.14400
H312        H  0.41751292  0.15308873  0.89367069     0.14400
H313        H  0.41732759  0.13564713  0.86586266     0.14400
H314        H  0.31464092  0.17025897  0.88743291     0.27600
H315        H  0.31438935  0.15558487  0.86406002     0.27600
C316        C  0.99655431  0.42833854  0.72312418     0.43900
N317        N  0.00792231  0.46303570  0.73673502     0.02800
C318        C  0.13335951  0.04377761  0.73299088    -0.05000
H319        H  0.14727196  0.43561762  0.74268212     0.08300
C320        C  0.09416363  0.44896572  0.79319529    -0.05400
Co321      Co  0.06036073  0.49051507  0.72592340     0.74200
N322        N  0.11034637  0.46059836  0.73850164    -0.24600
Co323      Co  0.11160580  0.49263083  0.75392091     0.74100
C324        C  0.12046756  0.43523080  0.78940073     0.44000
N325        N  0.02654799  0.46843323  0.78072986     0.02400
N326        N  0.10957816  0.46480956  0.77207191     0.02500
N327        N  0.09971268  0.04102773  0.71494818    -0.45400
H328        H  0.03510236  0.43513963  0.70808087     0.08300
N329        N  0.09049863  0.45976170  0.72807157     0.02800
N330        N  0.11231206  0.02787198  0.76949483     0.02600
C331        C  0.12308767  0.06227825  0.78348532     0.44200
N332        N  0.00764265  0.46754450  0.76986931    -0.24000
C333        C  0.02930777  0.04026407  0.71233806    -0.05000
N334        N  0.48477672  0.44496673  0.73486288    -0.45100
N335        N  0.13153758  0.04728204  0.77169628    -0.45400
C336        C  0.00312886  0.05390549  0.71616527     0.44000
N337        N  0.09575442  0.02238587  0.72561968     0.02800
N338        N  0.01058228  0.02699343  0.76604824    -0.24100
N339        N  0.02831203  0.46131625  0.72692731    -0.24500
N340        N  0.02913864  0.02860716  0.77707194     0.02500
H341        H  0.47574682  0.05530903  0.76085677     0.08400
H342        H  0.08345661  0.05535229  0.79783018     0.08400
N343        N  0.11496815  0.02362081  0.73634515    -0.24600
N344        N  0.08922541  0.46681065  0.78191950    -0.24200
N345        N  0.01277901  0.02313858  0.73292718     0.02800
C346        C  0.11655445  0.42506758  0.72344018     0.44200
C347        C  0.48303223  0.44999681  0.77383682    -0.05500
N348        N  0.09166385  0.02899781  0.77919434    -0.24200
H349        H  0.08241110  0.44815102  0.80347374     0.08400
N350        N  0.09344787  0.43886669  0.71885683    -0.45400
H351        H  0.46441947  0.44605954  0.76715321     0.08400
C352        C  0.50498260  0.06482937  0.78095476     0.44100
C353        C  0.02303786  0.44010556  0.71786725    -0.05000
Co354      Co  0.00818679  0.49531047  0.75208833     0.73800
N355        N  0.02096060  0.45071880  0.79170315    -0.45100
C356        C  0.12291242  0.05534676  0.71886465     0.44300
N357        N  0.49554604  0.04720637  0.72852563    -0.45100
Co358      Co  0.05892216  0.49768304  0.78025299     0.73900
C359        C  0.09648318  0.05010236  0.78845370    -0.05500
C360        C  0.12822063  0.43963333  0.73632528    -0.05000
N361        N  0.03360103  0.02174347  0.72335179    -0.24600
N362        N  0.12883052  0.44639865  0.77619772    -0.45300
H363        H  0.15176188  0.04930700  0.73951968     0.08300
C364        C  0.49470319  0.05148200  0.76731251    -0.05400
Cl365      Cl  0.05980505  0.49396316  0.75305007    -0.48400
C366        C  0.49100719  0.43953396  0.78868009     0.44100
H367        H  0.04243702  0.04312220  0.70263507     0.08300
N368        N  0.02439967  0.04977327  0.78592650    -0.45200
N369        N  0.31655193  0.14748690  0.09148841    -0.35100
N370        N  0.27366808  0.14159545  0.11396529    -0.55700
N371        N  0.31664068  0.14045165  0.13764358    -0.35100
N372        N  0.35946916  0.14358922  0.11499606    -0.55700
C373        C  0.29373670  0.14291311  0.08264630     0.28500
C374        C  0.33969225  0.14306336  0.08317683     0.28500
C375        C  0.29386251  0.13107999  0.14508634     0.28500
C376        C  0.33961030  0.13258428  0.14566339     0.28500
C377        C  0.25712909  0.14810135  0.10206357     0.37100
C378        C  0.25732143  0.14362960  0.12615972     0.37100
C379        C  0.37584144  0.15004866  0.10321639     0.37100
C380        C  0.37576033  0.14664783  0.12734606     0.37100
C381        C  0.30248341  0.13593565  0.06844262    -0.20400
C382        C  0.33149799  0.13599050  0.06878097    -0.20400
C383        C  0.30241398  0.11750367  0.15810167    -0.20400
C384        C  0.33132079  0.11847742  0.15846968    -0.20400
C385        C  0.23023724  0.15449451  0.10676790    -0.21500
C386        C  0.23033597  0.15150467  0.12203451    -0.21500
C387        C  0.40255445  0.15751852  0.10813977    -0.21500
C388        C  0.40249514  0.15530670  0.12343917    -0.21500
C389        C  0.26532744  0.14608759  0.08695225    -0.16800
C390        C  0.36791146  0.14668526  0.08806338    -0.16800
C391        C  0.36779302  0.13844689  0.14187059    -0.16800
C392        C  0.26556903  0.13547434  0.14073374    -0.16800
H393        H  0.28933213  0.13134908  0.05882871     0.16100
H394        H  0.34501700  0.13152563  0.05945692     0.16100
H395        H  0.28921004  0.10782824  0.16645834     0.16100
H396        H  0.34469742  0.10965239  0.16713769     0.16100
H397        H  0.21223610  0.16018404  0.09991179     0.14400
H398        H  0.21245957  0.15426853  0.12925509     0.14400
H399        H  0.42045256  0.16330062  0.10139752     0.14400
H400        H  0.42029375  0.15888758  0.13081888     0.14400
H401        H  0.31638276  0.15599235  0.10211180     0.27600
H402        H  0.31638070  0.15364761  0.12837536     0.27600
N403        N  0.31781749  0.35990845  0.14745149    -0.35100
N404        N  0.27247782  0.35084682  0.12586634    -0.55700
N405        N  0.31335949  0.34280277  0.10279000    -0.35100
N406        N  0.35866608  0.35395339  0.12376973    -0.55700
C407        C  0.29539664  0.36970246  0.15493071     0.28500
C408        C  0.34123258  0.37054030  0.15398984     0.28500
C409        C  0.28951463  0.34435460  0.09449595     0.28500
C410        C  0.33509608  0.34603111  0.09333955     0.28500
C411        C  0.25761441  0.35063652  0.13862700     0.37100
C412        C  0.25543668  0.34028355  0.11518843     0.37100
C413        C  0.37618820  0.35406616  0.13576059     0.37100
C414        C  0.37374942  0.34446475  0.11219044     0.37100
C415        C  0.30471271  0.38651605  0.16644060    -0.20400
C416        C  0.33362336  0.38697281  0.16587279    -0.20400
C417        C  0.29613354  0.34872919  0.07957879    -0.20400
C418        C  0.32499055  0.34982778  0.07885080    -0.20400
C419        C  0.23095549  0.33988992  0.13607336    -0.21500
C420        C  0.22959604  0.33323268  0.12117679    -0.21500
C421        C  0.40255196  0.34472625  0.13178643    -0.21500
C422        C  0.40098783  0.33856027  0.11683227    -0.21500
C423        C  0.26685645  0.36287548  0.15204863    -0.16800
C424        C  0.36929125  0.36489655  0.14984482    -0.16800
C425        C  0.36367745  0.34282865  0.09730657    -0.16800
C426        C  0.26223711  0.33924071  0.09990696    -0.16800
H427        H  0.29202093  0.39731675  0.17445728     0.16100
H428        H  0.34745797  0.39821229  0.17334083     0.16100
H429        H  0.28171213  0.35028151  0.07016088     0.16100
H430        H  0.33716612  0.35238912  0.06876389     0.16100
H431        H  0.21410215  0.33765096  0.14404341     0.14400
H432        H  0.21147841  0.32484569  0.11534979     0.14400
H433        H  0.42105167  0.34290820  0.13887890     0.14400
H434        H  0.41804657  0.33100341  0.11010334     0.14400
H435        H  0.31731133  0.34471177  0.13931939     0.27600
H436        H  0.31483052  0.33594821  0.11382876     0.27600
C437        C  0.22441062  0.10918430  0.82391374     0.14200
C438        C  0.20449577  0.12604508  0.81663614     0.01100
C439        C  0.20517041  0.15473994  0.81882207     0.16100
C440        C  0.22500398  0.16629615  0.82867626     0.25500
C441        C  0.24436116  0.14920912  0.83631295    -0.40800
C442        C  0.24420983  0.12066714  0.83365736     0.32500
C443        C  0.18181681  0.11296916  0.80781637     0.01200
F444        F  0.18628451  0.17135494  0.81167792    -0.13100
F445        F  0.26297729  0.10386629  0.84077546    -0.13700
C446        C  0.15942931  0.10019428  0.81529888     0.16100
C447        C  0.13968280  0.08443194  0.80742929     0.25500
C448        C  0.14204258  0.08116883  0.79183408    -0.40800
C449        C  0.16409434  0.09481264  0.78430956     0.32500
C450        C  0.18385586  0.11055431  0.79225569     0.14200
F451        F  0.15740454  0.10210980  0.83039483    -0.13100
F452        F  0.16685758  0.09245974  0.76927505    -0.13700
F453        F  0.11940005  0.07116359  0.81530971    -0.15900
F454        F  0.20560183  0.12250917  0.78486216    -0.14500
F455        F  0.22427771  0.08146124  0.82175551    -0.14500
F456        F  0.22525783  0.19399742  0.83086158    -0.15900
C457        C  0.47405478  0.09450806  0.81610862     0.14200
C458        C  0.45028897  0.10811948  0.81033958     0.01100
C459        C  0.44629112  0.11030033  0.79481428     0.16100
C460        C  0.46502813  0.09758770  0.78514156     0.25500
C461        C  0.48786554  0.08215951  0.79090817    -0.40800
C462        C  0.49284264  0.08179079  0.80649605     0.32500
C463        C  0.42893800  0.11881826  0.82054334     0.01200
F464        F  0.42356628  0.12378360  0.78905856    -0.13100
F465        F  0.01120701  0.07392869  0.81139388    -0.13700
C466        C  0.42442613  0.14735729  0.82164139     0.16100
C467        C  0.40396518  0.15731738  0.83126921     0.25500
C468        C  0.38769631  0.13881155  0.83974694    -0.40800
C469        C  0.39210762  0.11027955  0.83862812     0.32500
C470        C  0.41270360  0.10031768  0.82909763     0.14200
F471        F  0.44008534  0.16548337  0.81353024    -0.13100
F472        F  0.37652259  0.09219756  0.84682143    -0.13700
F473        F  0.39995555  0.18496618  0.83237177    -0.15900
F474        F  0.41658718  0.07263046  0.82802943    -0.14500
F475        F  0.47870215  0.09304183  0.83111077    -0.14500
F476        F  0.46054639  0.10019374  0.77017695    -0.15900
C477        C  0.14457896  0.39080338  0.82256546     0.14200
C478        C  0.17376647  0.39011495  0.82049453     0.01100
C479        C  0.18523314  0.40295782  0.80778418     0.16100
C480        C  0.16791301  0.41699881  0.79747939     0.25500
C481        C  0.13865041  0.41852927  0.79971392    -0.40800
C482        C  0.12713691  0.40470020  0.81224083     0.32500
C483        C  0.19265035  0.37764019  0.83198908     0.01200
F484        F  0.21346273  0.40281556  0.80567665    -0.13100
F485        F  0.09897865  0.40439160  0.81452527    -0.13700
C486        C  0.20768085  0.35339395  0.82900700     0.16100
C487        C  0.22791646  0.34351675  0.83924485     0.25500
C488        C  0.23339714  0.35780199  0.85256984    -0.40800
C489        C  0.21763310  0.38145329  0.85578411     0.32500
C490        C  0.19741806  0.39130776  0.84556702     0.14200
F491        F  0.20309675  0.33964620  0.81605294    -0.13100
F492        F  0.22273750  0.39565752  0.86853852    -0.13700
F493        F  0.24265632  0.32040570  0.83603217    -0.15900
F494        F  0.18343689  0.41497732  0.84857537    -0.14500
F495        F  0.13298688  0.37809846  0.83464841    -0.14500
F496        F  0.18004539  0.42991899  0.78562511    -0.15900
C497        C  0.40712932  0.35699162  0.82795095     0.14200
C498        C  0.42057280  0.38219972  0.83105664     0.01100
C499        C  0.41412480  0.39642657  0.84415304     0.16100
C500        C  0.39405072  0.38582072  0.85394397     0.25500
C501        C  0.38031734  0.36085199  0.85074875    -0.40800
C502        C  0.38710852  0.34629179  0.83780792     0.32500
C503        C  0.43894856  0.39534626  0.81992111     0.01200
F504        F  0.42648024  0.42112532  0.84710636    -0.13100
F505        F  0.37406559  0.32200995  0.83468914    -0.13700
C506        C  0.42675706  0.40901104  0.80761212     0.16100
C507        C  0.44351114  0.42351633  0.79748770     0.25500
C508        C  0.47300294  0.42419487  0.79937807    -0.40800
C509        C  0.48513821  0.41051187  0.81185170     0.32500
C510        C  0.46817931  0.39621274  0.82206617     0.14200
F511        F  0.39838037  0.40910323  0.80571871    -0.13100
F512        F  0.01669952  0.42202427  0.81717740    -0.13700
F513        F  0.43049826  0.43791180  0.78632553    -0.15900
F514        F  0.48019876  0.38334120  0.83408588    -0.14500
F515        F  0.41305526  0.34312072  0.81526085    -0.14500
F516        F  0.38737150  0.40022878  0.86634790    -0.15900
C517        C  0.21667057  0.17476672  0.05678651     0.14200
C518        C  0.19480838  0.15509495  0.05673577     0.01100
C519        C  0.19764399  0.13102561  0.06555711     0.16100
C520        C  0.22158758  0.12711372  0.07461940     0.25500
C521        C  0.24277385  0.14749612  0.07523186    -0.40800
C522        C  0.24039572  0.17103794  0.06599078     0.32500
C523        C  0.16818446  0.16129153  0.04855038     0.01200
F524        F  0.17684430  0.11175204  0.06572310    -0.13100
F525        F  0.26026095  0.19121531  0.06658830    -0.13700
C526        C  0.16787320  0.16438594  0.03290327     0.16100
C527        C  0.14436362  0.17566650  0.02548149     0.25500
C528        C  0.12098420  0.18461609  0.03366211    -0.40800
C529        C  0.12051959  0.17936142  0.04920451     0.32500
C530        C  0.14381517  0.16761196  0.05655053     0.14200
F531        F  0.19098385  0.15785960  0.02490902    -0.13100
F532        F  0.09815449  0.18722406  0.05744607    -0.13700
F533        F  0.14564825  0.18016278  0.01049694    -0.15900
F534        F  0.14340227  0.16444658  0.07166072    -0.14500
F535        F  0.21418721  0.19847080  0.04861730    -0.14500
F536        F  0.22351876  0.10408338  0.08338217    -0.15900
C537        C  0.48987719  0.16574487  0.05923561     0.14200
C538        C  0.46588310  0.15715633  0.05126565     0.01100
C539        C  0.46563954  0.15896122  0.03559318     0.16100
C540        C  0.48787732  0.17175888  0.02804987     0.25500
C541        C  0.51034305  0.18359801  0.03616187    -0.40800
C542        C  0.51184471  0.17914548  0.05176212     0.32500
C543        C  0.43932515  0.15222533  0.05930774     0.01200
F544        F  0.44271463  0.15043051  0.02771111    -0.13100
F545        F  0.02575942  0.19771538  0.06169126    -0.13700
C546        C  0.41879675  0.17306149  0.05906292     0.16100
C547        C  0.39471569  0.17049893  0.06777610     0.25500
C548        C  0.39078169  0.14704382  0.07686845    -0.40800
C549        C  0.41083156  0.12570024  0.07674510     0.32500
C550        C  0.43508207  0.12834333  0.06806268     0.14200
F551        F  0.42292506  0.19664273  0.05099199    -0.13100
F552        F  0.40742937  0.10293636  0.08556839    -0.13700
F553        F  0.37602936  0.19162137  0.06803298    -0.15900
F554        F  0.45469845  0.10803678  0.06849166    -0.14500
F555        F  0.49078988  0.16361251  0.07439431    -0.14500
F556        F  0.48581027  0.17515019  0.01299711    -0.15900
C557        C  0.14956649  0.31288003  0.05929162     0.14200
C558        C  0.17817864  0.31007776  0.05610422     0.01100
C559        C  0.18632412  0.29826385  0.04255604     0.16100
C560        C  0.16606665  0.28840726  0.03251504     0.25500
C561        C  0.13734504  0.29016334  0.03593914    -0.40800
C562        C  0.12927627  0.30304337  0.04931841     0.32500
C563        C  0.19950348  0.31779756  0.06736125     0.01200
F564        F  0.21397286  0.29580961  0.03921429    -0.13100
F565        F  0.10183104  0.30463267  0.05327859    -0.13700
C566        C  0.21684332  0.29733968  0.07377681     0.16100
C567        C  0.23709249  0.30440627  0.08447039     0.25500
C568        C  0.24001816  0.33192196  0.08897733    -0.40800
C569        C  0.22247578  0.35237165  0.08274113     0.32500
C570        C  0.20227956  0.34533775  0.07195644     0.14200
F571        F  0.21383558  0.27047920  0.06981301    -0.13100
F572        F  0.22526980  0.37910335  0.08694756    -0.13700
F573        F  0.25391192  0.28445605  0.09045535    -0.15900
F574        F  0.18576362  0.36537396  0.06580323    -0.14500
F575        F  0.14129626  0.32373550  0.07247404    -0.14500
F576        F  0.17458393  0.27668419  0.01961016    -0.15900
C577        C  0.40291290  0.30383554  0.06773591     0.14200
C578        C  0.42251473  0.32370993  0.06284873     0.01100
C579        C  0.42209720  0.35031369  0.06904539     0.16100
C580        C  0.40295094  0.35662759  0.08026576     0.25500
C581        C  0.38374141  0.33657363  0.08525595    -0.40800
C582        C  0.38354587  0.31030762  0.07877833     0.32500
C583        C  0.44523144  0.31557163  0.05260686     0.01200
F584        F  0.44055184  0.36998952  0.06438879    -0.13100
F585        F  0.36514333  0.29066500  0.08353897    -0.13700
C586        C  0.43909354  0.30357971  0.03869261     0.16100
C587        C  0.46063240  0.29222811  0.03015258     0.25500
C588        C  0.48872547  0.29281219  0.03539111    -0.40800
C589        C  0.49482984  0.30629317  0.04894588     0.32500
C590        C  0.47331057  0.31733995  0.05747163     0.14200
F591        F  0.41213804  0.30222607  0.03357555    -0.13100
F592        F  0.02078752  0.30255804  0.05397831    -0.13700
F593        F  0.45385944  0.28015415  0.01695131    -0.15900
F594        F  0.47977767  0.32808662  0.07104861    -0.14500
F595        F  0.40348484  0.27771254  0.06237459    -0.14500
F596        F  0.40331461  0.38215041  0.08640451    -0.15900
C597        C  0.14391919  0.28699761  0.94576837     0.14200
C598        C  0.16537001  0.30372305  0.95173363     0.01100
C599        C  0.16133159  0.31628629  0.96560001     0.16100
C600        C  0.13711760  0.31061948  0.97388488     0.25500
C601        C  0.11646881  0.29210606  0.96846880    -0.40800
C602        C  0.11951742  0.28150834  0.95395769     0.32500
C603        C  0.19194345  0.30807302  0.94349225     0.01200
F604        F  0.18170891  0.33266862  0.97154748    -0.13100
F605        F  0.10011372  0.26385093  0.94819530    -0.13700
C606        C  0.19860763  0.33433239  0.93771392     0.16100
C607        C  0.22270753  0.33819658  0.92910834     0.25500
C608        C  0.24052537  0.31584365  0.92614328    -0.40800
C609        C  0.23455712  0.28979208  0.93241526     0.32500
C610        C  0.21046855  0.28597246  0.94110739     0.14200
F611        F  0.18108610  0.35596184  0.93988298    -0.13100
F612        F  0.25137067  0.26790594  0.92954715    -0.13700
F613        F  0.22805416  0.36350972  0.92306343    -0.15900
F614        F  0.20504420  0.26069570  0.94709995    -0.14500
F615        F  0.14701175  0.27526272  0.93217738    -0.14500
F616        F  0.13492499  0.32163349  0.98772569    -0.15900
C617        C  0.48690909  0.28203410  0.94311234     0.14200
C618        C  0.46638647  0.30076305  0.94793338     0.01100
C619        C  0.47084275  0.31454163  0.96150025     0.16100
C620        C  0.49404419  0.30806684  0.97064123     0.25500
C621        C  0.51320189  0.28740688  0.96651323    -0.40800
C622        C  0.51019554  0.27550739  0.95227751     0.32500
C623        C  0.43978732  0.30510705  0.93923741     0.01200
F624        F  0.45160385  0.33287238  0.96644230    -0.13100
F625        F  0.02486165  0.25501936  0.94792356    -0.13700
C626        C  0.42123451  0.28289881  0.93656410     0.16100
C627        C  0.39637551  0.28688460  0.92820029     0.25500
C628        C  0.38919145  0.31333721  0.92280053    -0.40800
C629        C  0.40718459  0.33569158  0.92594447     0.32500
C630        C  0.43228063  0.33161357  0.93401697     0.14200
F631        F  0.42690497  0.25750572  0.94239339    -0.13100
F632        F  0.40066405  0.36144240  0.92086422    -0.13700
F633        F  0.37963984  0.26488191  0.92507021    -0.15900
F634        F  0.44955758  0.35350086  0.93649934    -0.14500
F635        F  0.48391593  0.26937355  0.92972628    -0.14500
F636        F  0.49667334  0.32065180  0.98408354    -0.15900
C637        C  0.18988541  0.20329132  0.95953708     0.14200
C638        C  0.18169581  0.20020988  0.94450142     0.01100
C639        C  0.15293215  0.19879947  0.94083788     0.16100
C640        C  0.13267249  0.20146236  0.95194851     0.25500
C641        C  0.14087326  0.20552351  0.96697657    -0.40800
C642        C  0.16974167  0.20579236  0.97065712     0.32500
C643        C  0.20324431  0.19879615  0.93269582     0.01200
F644        F  0.14443224  0.19506532  0.92645126    -0.13100
F645        F  0.17866263  0.20934555  0.98498769    -0.13700
C646        C  0.22487592  0.17916279  0.93381547     0.16100
C647        C  0.24541038  0.17787968  0.92283013     0.25500
C648        C  0.24454530  0.19599267  0.91044426    -0.40800
C649        C  0.22324857  0.21594516  0.90938137     0.32500
C650        C  0.20268338  0.21730552  0.92041473     0.14200
F651        F  0.22570981  0.16071947  0.94537301    -0.13100
F652        F  0.22238344  0.23398714  0.89764426    -0.13700
F653        F  0.26593091  0.15853544  0.92411094    -0.15900
F654        F  0.18246411  0.23692819  0.91919887    -0.14500
F655        F  0.21750279  0.20524240  0.96340300    -0.14500
F656        F  0.10511157  0.20130145  0.94782171    -0.15900
C657        C  0.48091980  0.18943234  0.94467856     0.14200
C658        C  0.45184223  0.18848233  0.94731726     0.01100
C659        C  0.44213480  0.19182805  0.96194598     0.16100
C660        C  0.46093017  0.19712077  0.97364407     0.25500
C661        C  0.49000837  0.19990050  0.97095042    -0.40800
C662        C  0.49988591  0.19502566  0.95638664     0.32500
C663        C  0.43121676  0.18556530  0.93488225     0.01200
F664        F  0.41413991  0.19157293  0.96480006    -0.13100
F665        F  0.52770518  0.19686170  0.95326376    -0.13700
C666        C  0.41063180  0.16464172  0.93540234     0.16100
C667        C  0.38921006  0.16377582  0.92459796     0.25500
C668        C  0.38807886  0.18376692  0.91312864    -0.40800
C669        C  0.40886992  0.20432947  0.91236899     0.32500
C670        C  0.43047432  0.20505772  0.92307766     0.14200
F671        F  0.41151717  0.14486949  0.94629419    -0.13100
F672        F  0.40821931  0.22359751  0.90121189    -0.13700
F673        F  0.36977409  0.14319111  0.92515089    -0.15900
F674        F  0.45037076  0.22509594  0.92204883    -0.14500
F675        F  0.49089824  0.18552451  0.93068978    -0.14500
F676        F  0.45029087  0.20067785  0.98752452    -0.15900
C677        C  0.43174417  0.40305703  0.16668907     0.14200
C678        C  0.43465370  0.38989891  0.18069341     0.01100
C679        C  0.41689006  0.36756551  0.18428699     0.16100
C680        C  0.39610129  0.35890210  0.17411267     0.25500
C681        C  0.39261815  0.37265755  0.16027836    -0.40800
C682        C  0.41083323  0.39458589  0.15658074     0.32500
C683        C  0.45314892  0.40219386  0.19228697     0.01200
F684        F  0.41908794  0.35481098  0.19785181    -0.13100
F685        F  0.40756219  0.40851000  0.14341049    -0.13700
C686        C  0.44186056  0.42180099  0.20189002     0.16100
C687        C  0.45873069  0.43449748  0.21269050     0.25500
C688        C  0.48746904  0.42768198  0.21427518    -0.40800
C689        C  0.49891747  0.40817429  0.20445435     0.32500
C690        C  0.48184335  0.39557956  0.19350869     0.14200
F691        F  0.41433875  0.42894909  0.20064951    -0.13100
F692        F  0.52669771  0.40193151  0.20507456    -0.13700
F693        F  0.44665735  0.45348105  0.22162970    -0.15900
F694        F  0.49334139  0.37721945  0.18399694    -0.14500
F695        F  0.44836452  0.42495616  0.16311032    -0.14500
F696        F  0.37894511  0.33749653  0.17785934    -0.15900
C697        C  0.20763381  0.40222735  0.17002297     0.14200
C698        C  0.20723806  0.39040563  0.18444744     0.01100
C699        C  0.22569576  0.36863832  0.18801642     0.16100
C700        C  0.24456835  0.35906492  0.17735243     0.25500
C701        C  0.24534494  0.37128823  0.16303151    -0.40800
C702        C  0.22649270  0.39268570  0.15937879     0.32500
C703        C  0.18872436  0.40200330  0.19597062     0.01200
F704        F  0.22557149  0.35688795  0.20187666    -0.13100
F705        F  0.22704690  0.40492372  0.14563736    -0.13700
C706        C  0.15931844  0.40006207  0.19456198     0.16100
C707        C  0.14191184  0.41311943  0.20486795     0.25500
C708        C  0.15375533  0.42902840  0.21639443    -0.40800
C709        C  0.18319397  0.42982784  0.21817033     0.32500
C710        C  0.20050797  0.41637851  0.20806157     0.14200
F711        F  0.14754729  0.38600083  0.18301952    -0.13100
F712        F  0.19527792  0.44366100  0.22970808    -0.13700
F713        F  0.11357077  0.41135624  0.20314817    -0.15900
F714        F  0.22885908  0.41836868  0.20970922    -0.14500
F715        F  0.19055783  0.42380097  0.16646759    -0.14500
F716        F  0.26236947  0.33813945  0.18102238    -0.15900
C717        C  0.47902693  0.11343237  0.18710330     0.14200
C718        C  0.44964927  0.11031625  0.18747021     0.01100
C719        C  0.43736955  0.09567884  0.19933306     0.16100
C720        C  0.45415697  0.08302269  0.21029550     0.25500
C721        C  0.48369646  0.08480900  0.20962568    -0.40800
C722        C  0.49597484  0.10103713  0.19824845     0.32500
C723        C  0.43148140  0.12001238  0.17499271     0.01200
F724        F  0.40899508  0.09272920  0.19995171    -0.13100
F725        F  0.02507457  0.09273738  0.19522807    -0.13700
C726        C  0.42874364  0.10380700  0.16213322     0.16100
C727        C  0.40829891  0.11012514  0.15129374     0.25500
C728        C  0.39035056  0.13280859  0.15313146    -0.40800
C729        C  0.39350075  0.14943534  0.16582570     0.32500
C730        C  0.41392389  0.14301909  0.17672173     0.14200
F731        F  0.44493393  0.08102025  0.16047522    -0.13100
F732        F  0.37642646  0.17149125  0.16776935    -0.13700
F733        F  0.40523349  0.09350299  0.13924876    -0.15900
F734        F  0.41608257  0.15872057  0.18916659    -0.14500
F735        F  0.49123736  0.12785728  0.17577765    -0.14500
F736        F  0.44134727  0.06902576  0.22157542    -0.15900
C737        C  0.15978951  0.11789831  0.18873257     0.14200
C738        C  0.18465142  0.10408641  0.18508982     0.01100
C739        C  0.19217544  0.07999132  0.19288600     0.16100
C740        C  0.17485241  0.06928739  0.20395019     0.25500
C741        C  0.14952030  0.08266852  0.20762421    -0.40800
C742        C  0.14224001  0.10726644  0.19993573     0.32500
C743        C  0.20295863  0.11410320  0.17301742     0.01200
F744        F  0.21659921  0.06683622  0.18981779    -0.13100
F745        F  0.11834287  0.12107805  0.20315829    -0.13700
C746        C  0.21930923  0.13801912  0.17491776     0.16100
C747        C  0.23940332  0.14535780  0.16426496     0.25500
C748        C  0.24323641  0.12884311  0.15163647    -0.40800
C749        C  0.22639219  0.10528429  0.14958988     0.32500
C750        C  0.20640622  0.09793777  0.16022929     0.14200
F751        F  0.21668373  0.15344931  0.18740767    -0.13100
F752        F  0.22999627  0.08895583  0.13751376    -0.13700
F753        F  0.25555865  0.16817486  0.16639085    -0.15900
F754        F  0.19091541  0.07459694  0.15830613    -0.14500
F755        F  0.15237203  0.14140668  0.18128661    -0.14500
F756        F  0.18313321  0.04562102  0.21098772    -0.15900
C757        C  0.15617078  0.12954624  0.66143766     0.14200
C758        C  0.16864906  0.13120723  0.67570632     0.01100
C759        C  0.18805219  0.15241799  0.67870294     0.16100
C760        C  0.19348991  0.17273803  0.66782693     0.25500
C761        C  0.17928851  0.17221323  0.65392560    -0.40800
C762        C  0.16102693  0.15008093  0.65074467     0.32500
C763        C  0.15814781  0.11310302  0.68782497     0.01200
F764        F  0.20034511  0.15440386  0.69242519    -0.13100
F765        F  0.14667347  0.14909563  0.63754654    -0.13700
C766        C  0.17601864  0.09505617  0.69584366     0.16100
C767        C  0.16486006  0.07689492  0.70659015     0.25500
C768        C  0.13574082  0.07641291  0.70917317    -0.40800
C769        C  0.11815599  0.09499697  0.70144891     0.32500
C770        C  0.12930811  0.11343946  0.69104169     0.14200
F771        F  0.20391328  0.09419515  0.69281833    -0.13100
F772        F  0.09003843  0.09522731  0.70395723    -0.13700
F773        F  0.18217629  0.05875266  0.71377891    -0.15900
F774        F  0.11183076  0.13154299  0.68392081    -0.14500
F775        F  0.13802089  0.10870027  0.65814660    -0.14500
F776        F  0.21159656  0.19361369  0.67108915    -0.15900
C777        C  0.13981466  0.34807782  0.66756565     0.14200
C778        C  0.15775223  0.34949290  0.68017731     0.01100
C779        C  0.18329179  0.33487748  0.68020401     0.16100
C780        C  0.19022050  0.31842314  0.66803093     0.25500
C781        C  0.17151451  0.31603615  0.65586864    -0.40800
C782        C  0.14655092  0.33130055  0.65557605     0.32500
C783        C  0.14933952  0.36617779  0.69316479     0.01200
F784        F  0.20095738  0.33565299  0.69221777    -0.13100
F785        F  0.12825104  0.32916295  0.64387739    -0.13700
C786        C  0.12241028  0.36262066  0.69927246     0.16100
C787        C  0.11224212  0.38139766  0.70958635     0.25500
C788        C  0.12927122  0.40321377  0.71453950    -0.40800
C789        C  0.15700121  0.40557260  0.70941613     0.32500
C790        C  0.16690040  0.38731942  0.69864484     0.14200
F791        F  0.10556415  0.34145644  0.69484551    -0.13100
F792        F  0.17365984  0.42682823  0.71387692    -0.13700
F793        F  0.08540159  0.37875643  0.71445719    -0.15900
F794        F  0.19286636  0.39147507  0.69285056    -0.14500
F795        F  0.11556950  0.36280225  0.66691004    -0.14500
F796        F  0.21481514  0.30426065  0.66821696    -0.15900
C797        C  0.47640301  0.09567515  0.68141936     0.14200
C798        C  0.46314857  0.11847448  0.68782269     0.01100
C799        C  0.46290635  0.12093596  0.70347639     0.16100
C800        C  0.47619352  0.10108350  0.71258432     0.25500
C801        C  0.49006094  0.07863887  0.70614896    -0.40800
C802        C  0.48978514  0.07595111  0.69048178     0.32500
C803        C  0.45021110  0.13994024  0.67809763     0.01200
F804        F  0.45057267  0.14302981  0.70989944    -0.13100
F805        F  0.99903285  0.04892809  0.68440211    -0.13700
C806        C  0.42136732  0.14587204  0.67906440     0.16100
C807        C  0.40929097  0.16618336  0.66979313     0.25500
C808        C  0.42584322  0.18043744  0.65931054    -0.40800
C809        C  0.45454806  0.17429723  0.65821605     0.32500
C810        C  0.46671934  0.15437528  0.66762871     0.14200
F811        F  0.40484815  0.13154247  0.68874057    -0.13100
F812        F  0.47074692  0.18778237  0.64804487    -0.13700
F813        F  0.38143210  0.17173109  0.67087371    -0.15900
F814        F  0.49470891  0.14935917  0.66664657    -0.14500
F815        F  0.47612808  0.09238628  0.66634966    -0.14500
F816        F  0.47645967  0.10435705  0.72764842    -0.15900
C817        C  0.44265166  0.36186460  0.66786479     0.14200
C818        C  0.43181786  0.36106718  0.68242553     0.01100
C819        C  0.40962894  0.34288917  0.68579186     0.16100
C820        C  0.39974527  0.32440197  0.67498002     0.25500
C821        C  0.41197125  0.32394625  0.66073042    -0.40800
C822        C  0.43289598  0.34336897  0.65711009     0.32500
C823        C  0.44604186  0.37699483  0.69432133     0.01200
F824        F  0.39861412  0.34206825  0.69973732    -0.13100
F825        F  0.44476085  0.34353759  0.64336069    -0.13700
C826        C  0.43285095  0.39940442  0.70117349     0.16100
C827        C  0.44787114  0.41583170  0.71134404     0.25500
C828        C  0.47625300  0.41005507  0.71465284    -0.40800
C829        C  0.99244549  0.38790458  0.70612286     0.32500
C830        C  0.47391179  0.37045044  0.69824917     0.14200
F831        F  0.40598541  0.40617005  0.69744415    -0.13100
F832        F  0.02087778  0.38566434  0.70595363    -0.13700
F833        F  0.43528122  0.43834734  0.71717658    -0.15900
F834        F  0.99014950  0.35198428  0.68836744    -0.14500
F835        F  0.46346277  0.37995483  0.66426410    -0.14500
F836        F  0.37895405  0.30627346  0.67852986    -0.15900
C837        C  0.36719135  0.10380523  0.54461148     0.14200
C838        C  0.35700384  0.10776925  0.55912525     0.01100
C839        C  0.33817700  0.08833606  0.56516065     0.16100
C840        C  0.32813589  0.06638528  0.55654912     0.25500
C841        C  0.33639709  0.06353933  0.54152760    -0.40800
C842        C  0.35689181  0.08199154  0.53584406     0.32500
C843        C  0.36406518  0.13302791  0.56772477     0.01200
F844        F  0.32865164  0.09125954  0.57932082    -0.13100
F845        F  0.36604696  0.07976738  0.52157329    -0.13700
C846        C  0.34255875  0.15153615  0.57148148     0.16100
C847        C  0.34815497  0.17393777  0.58082376     0.25500
C848        C  0.37531590  0.17818177  0.58665609    -0.40800
C849        C  0.39712367  0.16037399  0.58244946     0.32500
C850        C  0.39157140  0.13802670  0.57297600     0.14200
F851        F  0.31594505  0.14758003  0.56627002    -0.13100
F852        F  0.42360533  0.16427475  0.58785715    -0.13700
F853        F  0.32684080  0.19098330  0.58462316    -0.15900
F854        F  0.41276578  0.12065375  0.56943146    -0.14500
F855        F  0.38586395  0.12197677  0.53861476    -0.14500
F856        F  0.30888454  0.04901809  0.56270833    -0.15900
C857        C  0.33014766  0.41360052  0.56488612     0.14200
C858        C  0.34951937  0.39423213  0.55971570     0.01100
C859        C  0.36053799  0.39749195  0.54527745     0.16100
C860        C  0.35105503  0.41889882  0.53580679     0.25500
C861        C  0.33059191  0.43767081  0.54071563    -0.40800
C862        C  0.32076949  0.43504871  0.55554111     0.32500
C863        C  0.35648091  0.36954069  0.56897343     0.01200
F864        F  0.37927170  0.37894082  0.54004309    -0.13100
F865        F  0.30054265  0.45203964  0.56077493    -0.13700
C866        C  0.33501783  0.35109532  0.57330547     0.16100
C867        C  0.34125119  0.32794779  0.58221202     0.25500
C868        C  0.36898944  0.32290255  0.58691264    -0.40800
C869        C  0.39054919  0.34099010  0.58241666     0.32500
C870        C  0.38433755  0.36422435  0.57353552     0.14200
F871        F  0.30795875  0.35564180  0.56897612    -0.13100
F872        F  0.41744977  0.33650979  0.58704320    -0.13700
F873        F  0.32012552  0.31093514  0.58669646    -0.15900
F874        F  0.40529874  0.38207828  0.56986321    -0.14500
F875        F  0.31951111  0.41117487  0.57888667    -0.14500
F876        F  0.36098513  0.42042393  0.52164049    -0.15900
C877        C  0.20637094  0.09184956  0.54984464     0.14200
C878        C  0.20522464  0.11939560  0.54482225     0.01100
C879        C  0.21516165  0.12643412  0.53058135     0.16100
C880        C  0.22807614  0.10656672  0.52187824     0.25500
C881        C  0.23118454  0.07929460  0.52732281    -0.40800
C882        C  0.21914809  0.07181974  0.54110719     0.32500
C883        C  0.19776335  0.14130316  0.55527097     0.01200
F884        F  0.21400118  0.15299040  0.52554573    -0.13100
F885        F  0.22227418  0.04589615  0.54683828    -0.13700
C886        C  0.21878902  0.15963101  0.56018138     0.16100
C887        C  0.21276113  0.17920921  0.57093482     0.25500
C888        C  0.18576127  0.18055712  0.57696876    -0.40800
C889        C  0.16452188  0.16263437  0.57193705     0.32500
C890        C  0.17052379  0.14301702  0.56108023     0.14200
F891        F  0.24545711  0.15775077  0.55500911    -0.13100
F892        F  0.13829399  0.16387935  0.57772796    -0.13700
F893        F  0.23348423  0.19626671  0.57591391    -0.15900
F894        F  0.15000310  0.12552083  0.55634513    -0.14500
F895        F  0.19747724  0.08491431  0.56378222    -0.14500
F896        F  0.23908714  0.11447559  0.50853715    -0.15900
C897        C  0.20762946  0.37937597  0.53220030     0.14200
C898        C  0.20101656  0.38559145  0.54702447     0.01100
C899        C  0.20557636  0.41249166  0.55227659     0.16100
C900        C  0.21828857  0.43246040  0.54307152     0.25500
C901        C  0.22714185  0.42554233  0.52860647    -0.40800
C902        C  0.22114673  0.39890095  0.52317741     0.32500
C903        C  0.19412878  0.36291612  0.55757107     0.01200
F904        F  0.19997715  0.41869414  0.56671630    -0.13100
F905        F  0.22990810  0.39107823  0.50946264    -0.13700
C906        C  0.21440916  0.34246910  0.56057769     0.16100
C907        C  0.20906631  0.32146799  0.57096389     0.25500
C908        C  0.18347046  0.32069085  0.57858279    -0.40800
C909        C  0.16294862  0.34081043  0.57549249     0.32500
C910        C  0.16825194  0.36188531  0.56501014     0.14200
F911        F  0.23980456  0.34340900  0.55377702    -0.13100
F912        F  0.13801125  0.34008719  0.58273615    -0.13700
F913        F  0.22918533  0.30227047  0.57393548    -0.15900
F914        F  0.14825329  0.38120590  0.56210836    -0.14500
F915        F  0.20265027  0.35368293  0.52680630    -0.14500
F916        F  0.22456853  0.45756530  0.54886997    -0.15900
C917        C  0.20184448  0.15312789  0.33750668     0.14200
C918        C  0.17537377  0.15091522  0.33046765     0.01100
C919        C  0.15322135  0.16781393  0.33510923     0.16100
C920        C  0.15742223  0.18675012  0.34654038     0.25500
C921        C  0.18379110  0.18909385  0.35355892    -0.40800
C922        C  0.20606152  0.17221514  0.34901265     0.32500
C923        C  0.17018203  0.13113874  0.31827532     0.01200
F924        F  0.12730514  0.16558019  0.32870640    -0.13100
F925        F  0.23173755  0.17432525  0.35568511    -0.13700
C926        C  0.16960325  0.10254690  0.32121624     0.16100
C927        C  0.15925944  0.08433124  0.31037346     0.25500
C928        C  0.14888790  0.09463663  0.29665631    -0.40800
C929        C  0.15117776  0.12304178  0.29340288     0.32500
C930        C  0.16200253  0.14110179  0.30408623     0.14200
F931        F  0.17702477  0.09254335  0.33494087    -0.13100
F932        F  0.14214791  0.13343975  0.28002699    -0.13700
F933        F  0.15717288  0.05698346  0.31372637    -0.15900
F934        F  0.16324491  0.16857245  0.30087410    -0.14500
F935        F  0.22354526  0.13710750  0.33310161    -0.14500
F936        F  0.13562154  0.20264218  0.35095796    -0.15900
C937        C  0.19133515  0.36969691  0.34262426     0.14200
C938        C  0.16412218  0.37579316  0.33719926     0.01100
C939        C  0.14149354  0.35873849  0.34158378     0.16100
C940        C  0.14583110  0.33673023  0.35157515     0.25500
C941        C  0.17289306  0.33098622  0.35709493    -0.40800
C942        C  0.19566768  0.34735972  0.35246196     0.32500
C943        C  0.15898888  0.39982934  0.32704444     0.01200
F944        F  0.11515481  0.36325832  0.33609077    -0.13100
F945        F  0.22198988  0.34191367  0.35769411    -0.13700
C946        C  0.17389106  0.40291474  0.31357900     0.16100
C947        C  0.16634520  0.42356007  0.30319651     0.25500
C948        C  0.14373839  0.44116760  0.30608055    -0.40800
C949        C  0.12960904  0.43887382  0.31971820     0.32500
C950        C  0.13752433  0.41876413  0.33025357     0.14200
F951        F  0.19432727  0.38473245  0.30996734    -0.13100
F952        F  0.10708397  0.45515363  0.32246612    -0.13700
F953        F  0.17946560  0.42482039  0.28978827    -0.15900
F954        F  0.12346812  0.41709939  0.34338020    -0.14500
F955        F  0.21357534  0.38580169  0.33874931    -0.14500
F956        F  0.12356194  0.32120047  0.35605796    -0.15900
C957        C  0.23387461  0.08378008  0.44641540     0.14200
C958        C  0.21820806  0.10382574  0.45388374     0.01100
C959        C  0.21132180  0.09922468  0.46896274     0.16100
C960        C  0.22190414  0.07609809  0.47675803     0.25500
C961        C  0.24033344  0.05768128  0.46971956    -0.40800
C962        C  0.24485445  0.06098275  0.45422658     0.32500
C963        C  0.21118082  0.13039251  0.44623736     0.01200
F964        F  0.19603137  0.11814659  0.47643506    -0.13100
F965        F  0.26112237  0.04287475  0.44673512    -0.13700
C966        C  0.18310467  0.13875293  0.44413819     0.16100
C967        C  0.17690358  0.16345318  0.43642664     0.25500
C968        C  0.19868900  0.18006006  0.43066842    -0.40800
C969        C  0.22670313  0.17191601  0.43298903     0.32500
C970        C  0.23291086  0.14740560  0.44075588     0.14200
F971        F  0.16172234  0.12233010  0.44889742    -0.13100
F972        F  0.24801161  0.18718762  0.42714302    -0.13700
F973        F  0.14965223  0.17038189  0.43378426    -0.15900
F974        F  0.26022563  0.14001586  0.44273709    -0.14500
F975        F  0.23958758  0.08694135  0.43164029    -0.14500
F976        F  0.21556202  0.07283572  0.49142123    -0.15900
C977        C  0.17476567  0.36586476  0.44736426     0.14200
C978        C  0.20226361  0.37649036  0.44840058     0.01100
C979        C  0.22460759  0.36104681  0.44261861     0.16100
C980        C  0.21942531  0.33618118  0.43525302     0.25500
C981        C  0.19180564  0.32633669  0.43344400    -0.40800
C982        C  0.16958032  0.34090534  0.43996545     0.32500
C983        C  0.20817826  0.40357122  0.45545478     0.01200
F984        F  0.25148582  0.37038428  0.44386296    -0.13100
F985        F  0.14268924  0.33195343  0.43818656    -0.13700
C986        C  0.20300592  0.40757452  0.47071677     0.16100
C987        C  0.21416218  0.43069554  0.47803210     0.25500
C988        C  0.23149835  0.44959411  0.47028480    -0.40800
C989        C  0.23333268  0.44742477  0.45462767     0.32500
C990        C  0.22177104  0.42461200  0.44728701     0.14200
F991        F  0.18911441  0.38802393  0.47879203    -0.13100
F992        F  0.24776502  0.46656287  0.44652643    -0.13700
F993        F  0.20968860  0.43338935  0.49288512    -0.15900
F994        F  0.22517923  0.42229360  0.43229304    -0.14500
F995        F  0.15281998  0.38038862  0.45278860    -0.14500
F996        F  0.24126146  0.32233729  0.42921663    -0.15900
C997        C  0.45371274  0.09348993  0.31848691     0.14200
C998        C  0.46470934  0.11986226  0.32143341     0.01100
C999        C  0.48889688  0.12876061  0.31396037     0.16100
C1000       C  0.01704449  0.11200189  0.30509256     0.25500
C1001       C  0.49037918  0.08570420  0.30005047    -0.40800
C1002       C  0.46653025  0.07642139  0.30796419     0.32500
C1003       C  0.45097089  0.13877611  0.33198540     0.01200
F1004       F  0.49996468  0.15413397  0.31667812    -0.13100
F1005       F  0.45553345  0.05092735  0.30565221    -0.13700
C1006       C  0.46515046  0.14682422  0.34510252     0.16100
C1007       C  0.45394954  0.16733047  0.35415088     0.25500
C1008       C  0.42855507  0.18032438  0.35015015    -0.40800
C1009       C  0.41394321  0.17181269  0.33725435     0.32500
C1010       C  0.42505165  0.15107299  0.32824279     0.14200
F1011       F  0.49004727  0.13500396  0.34902247    -0.13100
F1012       F  0.38902872  0.18364703  0.33340522    -0.13700
F1013       F  0.46800753  0.17480550  0.36677350    -0.15900
F1014       F  0.41105065  0.14363921  0.31559394    -0.14500
F1015       F  0.43072586  0.08418692  0.32590834    -0.14500
F1016       F  0.04030868  0.12067303  0.29769055    -0.15900
C1017       C  0.48983242  0.39349786  0.32470358     0.14200
C1018       C  0.46029317  0.39281808  0.32449007     0.01100
C1019       C  0.44569675  0.41217491  0.31547781     0.16100
C1020       C  0.46048886  0.43091446  0.30629186     0.25500
C1021       C  0.49013040  0.43052784  0.30598013    -0.40800
C1022       C  0.01998945  0.41474801  0.31544690     0.32500
C1023       C  0.44535519  0.37153290  0.33362870     0.01200
F1024       F  0.41716715  0.41292248  0.31557458    -0.13100
F1025       F  0.04848354  0.41642802  0.31516798    -0.13700
C1026       C  0.45132868  0.36901807  0.34901316     0.16100
C1027       C  0.44103233  0.34662680  0.35731244     0.25500
C1028       C  0.42360057  0.32662498  0.35058127    -0.40800
C1029       C  0.41649906  0.32974274  0.33532802     0.32500
C1030       C  0.42746009  0.35190624  0.32688830     0.14200
F1031       F  0.46761947  0.38813852  0.35598830    -0.13100
F1032       F  0.39922017  0.31117372  0.32859153    -0.13700
F1033       F  0.44847044  0.34424340  0.37197900    -0.15900
F1034       F  0.42146305  0.35360075  0.31202663    -0.14500
F1035       F  0.50464954  0.37521563  0.33327914    -0.14500
F1036       F  0.44579058  0.44878016  0.29741892    -0.15900
C1037       C  0.35492377  0.12435348  0.47042241     0.14200
C1038       C  0.36858189  0.11705071  0.45718777     0.01100
C1039       C  0.37408078  0.08905758  0.45446423     0.16100
C1040       C  0.36415675  0.06857276  0.46424049     0.25500
C1041       C  0.34832452  0.07579838  0.47682075    -0.40800
C1042       C  0.34474457  0.10393148  0.48012048     0.32500
C1043       C  0.37443578  0.13834554  0.44560119     0.01200
F1044       F  0.38716409  0.08139558  0.44174923    -0.13100
F1045       F  0.33028207  0.11169637  0.49239432    -0.13700
C1046       C  0.40169222  0.14215771  0.43996790     0.16100
C1047       C  0.40669716  0.16211750  0.42884154     0.25500
C1048       C  0.38454394  0.17850997  0.42327435    -0.40800
C1049       C  0.35732352  0.17456023  0.42878498     0.32500
C1050       C  0.35225850  0.15456791  0.43981266     0.14200
F1051       F  0.42346934  0.12686904  0.44540776    -0.13100
F1052       F  0.33562092  0.18996097  0.42334952    -0.13700
F1053       F  0.43314848  0.16569016  0.42358592    -0.15900
F1054       F  0.32554351  0.15063760  0.44463901    -0.14500
F1055       F  0.35041688  0.15132321  0.47363010    -0.14500
F1056       F  0.36795183  0.04167147  0.46064724    -0.15900
C1057       C  0.36580425  0.41212526  0.45192224     0.14200
C1058       C  0.35998852  0.38416735  0.45500815     0.01100
C1059       C  0.34531277  0.37712817  0.46807395     0.16100
C1060       C  0.33523330  0.39771087  0.47746620     0.25500
C1061       C  0.33958504  0.42585880  0.47397112    -0.40800
C1062       C  0.35570555  0.43280065  0.46129561     0.32500
C1063       C  0.36703563  0.36252911  0.44403311     0.01200
F1064       F  0.34011973  0.35021364  0.47153359    -0.13100
F1065       F  0.36012111  0.45962669  0.45735397    -0.13700
C1066       C  0.39500575  0.35793429  0.43973574     0.16100
C1067       C  0.40113780  0.33768700  0.42917185     0.25500
C1068       C  0.37942219  0.32169875  0.42287892    -0.40800
C1069       C  0.35156991  0.32625618  0.42714652     0.32500
C1070       C  0.34538473  0.34659501  0.43756801     0.14200
F1071       F  0.41633623  0.37281206  0.44589328    -0.13100
F1072       F  0.33033954  0.31122223  0.42100493    -0.13700
F1073       F  0.42820258  0.33361355  0.42507148    -0.15900
F1074       F  0.31812105  0.35121880  0.44109941    -0.14500
F1075       F  0.37975432  0.41952464  0.43931151    -0.14500
F1076       F  0.32059180  0.39004668  0.48980232    -0.15900
N1077       N  0.39957161  0.75519661  0.40941396    -0.35100
N1078       N  0.41926415  0.71361544  0.38947914    -0.55700
N1079       N  0.43340601  0.75691397  0.36733249    -0.35100
N1080       N  0.41647828  0.79849266  0.38805221    -0.55700
C1081       C  0.39970647  0.73296328  0.41874524     0.28500
C1082       C  0.39802448  0.77787603  0.41799583     0.28500
C1083       C  0.44598043  0.73455234  0.36148534     0.28500
C1084       C  0.44499129  0.77964829  0.36083099     0.28500
C1085       C  0.40630122  0.69711779  0.39961588     0.37100
C1086       C  0.42352644  0.69800686  0.37731124     0.37100
C1087       C  0.40193600  0.81374348  0.39786281     0.37100
C1088       C  0.42052322  0.81474550  0.37584653     0.37100
C1089       C  0.39794960  0.74160123  0.43342478    -0.20400
C1090       C  0.39695585  0.76999261  0.43296110    -0.20400
C1091       C  0.46567289  0.74311224  0.35104902    -0.20400
C1092       C  0.46509068  0.77157270  0.35066133    -0.20400
C1093       C  0.40254402  0.67086438  0.39394795    -0.21500
C1094       C  0.41327972  0.67146305  0.37975877    -0.21500
C1095       C  0.39672240  0.83980168  0.39188483    -0.21500
C1096       C  0.40845536  0.84042018  0.37791667    -0.21500
C1097       C  0.39934688  0.70512732  0.41422872    -0.16800
C1098       C  0.39547390  0.80531871  0.41261905    -0.16800
C1099       C  0.43687180  0.80734877  0.36339403    -0.16800
C1100       C  0.43872216  0.70666190  0.36457267    -0.16800
H1101       H  0.39711671  0.72878499  0.44341294     0.16100
H1102       H  0.39520776  0.78329787  0.44255209     0.16100
H1103       H  0.47895024  0.73017701  0.34432511     0.16100
H1104       H  0.47787789  0.78477793  0.34361547     0.16100
H1105       H  0.39318884  0.65312950  0.39947835     0.14400
H1106       H  0.41386229  0.65417713  0.37220025     0.14400
H1107       H  0.38595941  0.85673713  0.39713772     0.14400
H1108       H  0.40842336  0.85789178  0.37025206     0.14400
H1109       H  0.39716181  0.75493100  0.39785120     0.27600
H1110       H  0.41574156  0.75640695  0.37408045     0.27600
N1111       N  0.17689291  0.75838014  0.37208760    -0.35100
N1112       N  0.18181804  0.79958139  0.39517035    -0.55700
N1113       N  0.18549014  0.75574772  0.41815966    -0.35100
N1114       N  0.18294200  0.71458094  0.39470556    -0.55700
C1115       C  0.17975818  0.78137207  0.36346045     0.28500
C1116       C  0.18073350  0.73634445  0.36318937     0.28500
C1117       C  0.19257722  0.77808959  0.42640861     0.28500
C1118       C  0.19273923  0.73283267  0.42617987     0.28500
C1119       C  0.17514471  0.81639578  0.38345487     0.37100
C1120       C  0.18028107  0.81511008  0.40760713     0.37100
C1121       C  0.17718822  0.69892659  0.38260193     0.37100
C1122       C  0.18186787  0.69747558  0.40677141     0.37100
C1123       C  0.18526880  0.77384543  0.34886716    -0.20400
C1124       C  0.18582210  0.74543492  0.34868586    -0.20400
C1125       C  0.20370728  0.76922012  0.44004210    -0.20400
C1126       C  0.20378744  0.74073512  0.43989946    -0.20400
C1127       C  0.16936372  0.84270314  0.38844754    -0.21500
C1128       C  0.17285561  0.84199059  0.40368076    -0.21500
C1129       C  0.17265773  0.67174007  0.38697543    -0.21500
C1130       C  0.17575298  0.67078040  0.40223855    -0.21500
C1131       C  0.17595512  0.80888137  0.36821874    -0.16800
C1132       C  0.17777745  0.70829285  0.36755554    -0.16800
C1133       C  0.18880153  0.70501265  0.42164563    -0.16800
C1134       C  0.18813989  0.80619809  0.42224198    -0.16800
H1135       H  0.18825769  0.78740235  0.33929732     0.16100
H1136       H  0.18925260  0.73290615  0.33892781     0.16100
H1137       H  0.21088784  0.78191671  0.44921413     0.16100
H1138       H  0.21111071  0.72739181  0.44891156     0.16100
H1139       H  0.16377381  0.86071784  0.38179102     0.14400
H1140       H  0.17059445  0.85955213  0.41092406     0.14400
H1141       H  0.16815969  0.65426510  0.37988412     0.14400
H1142       H  0.17413998  0.65234820  0.40913725     0.14400
H1143       H  0.16938513  0.75763823  0.38292694     0.27600
H1144       H  0.17408494  0.75613755  0.40821481     0.27600
O1145       O  0.30304070  0.94204859  0.48989003    -0.78700
O1146       O  0.31827439  0.54900245  0.51563836    -0.78700
O1147       O  0.33365853  0.53013559  0.48148781    -0.78700
O1148       O  0.29889267  0.97260653  0.53621188    -0.78600
O1149       O  0.30332920  0.56118879  0.48844334    -0.78800
O1150       O  0.31602922  0.95164377  0.51741527    -0.78700
O1151       O  0.29926844  0.52968931  0.53466439    -0.78700
O1152       O  0.33589234  0.97219984  0.48443502    -0.78700
C1153       C  0.32658928  0.94773624  0.48402363     1.11000
C1154       C  0.31680799  0.54666874  0.52954296     1.10900
C1155       C  0.32627612  0.55519984  0.48217906     1.11100
C1156       C  0.31408135  0.95369123  0.53127795     1.10900
O1157       O  0.26351022  0.93390201  0.51193874    -0.78700
O1158       O  0.25006023  0.53188604  0.49151346    -0.78700
O1159       O  0.27930855  0.97584335  0.47289974    -0.78700
O1160       O  0.24515154  0.53315675  0.52031420    -0.78600
O1161       O  0.26668132  0.57049757  0.51110321    -0.78700
O1162       O  0.25157692  0.97446613  0.49198566    -0.78700
O1163       O  0.24551160  0.97246516  0.52118694    -0.78600
O1164       O  0.27576552  0.52998097  0.47171481    -0.78700
Co1165     Co  0.28380753  0.96483446  0.50533179     1.51500
Co1166     Co  0.28409422  0.53867237  0.50421409     1.51700
Co1167     Co  0.30396182  0.50164429  0.47870252     1.51600
Co1168     Co  0.27488688  0.50201802  0.52424359     1.51500
O1169       O  0.29707313  0.50160820  0.50193901    -1.40600
C1170       C  0.24573592  0.94565279  0.52018052     1.11000
C1171       C  0.25314386  0.53729977  0.47782563     1.11100
C1172       C  0.25567839  0.96958954  0.47838929     1.11000
C1173       C  0.24716067  0.55991712  0.51881280     1.11000
N1174       N  0.36898456  0.74665540  0.60567734    -0.35100
N1175       N  0.38521722  0.70428173  0.62736990    -0.55700
N1176       N  0.39506065  0.74656057  0.64993524    -0.35100
N1177       N  0.38193735  0.78906384  0.62763336    -0.55700
C1178       C  0.37046312  0.72453005  0.59656590     0.28500
C1179       C  0.36749087  0.76954944  0.59686031     0.28500
C1180       C  0.40616163  0.72419879  0.65697917     0.28500
C1181       C  0.40543910  0.76913657  0.65690442     0.28500
C1182       C  0.37691845  0.68766265  0.61608902     0.37100
C1183       C  0.38964114  0.68769435  0.63942078     0.37100
C1184       C  0.37075742  0.80537321  0.61674606     0.37100
C1185       C  0.38588253  0.80529842  0.63968652     0.37100
C1186       C  0.36932653  0.73347186  0.58178253    -0.20400
C1187       C  0.36745093  0.76184033  0.58196598    -0.20400
C1188       C  0.42308264  0.73262280  0.66882284    -0.20400
C1189       C  0.42279176  0.76094455  0.66871030    -0.20400
C1190       C  0.37626700  0.66038496  0.62098967    -0.21500
C1191       C  0.38431927  0.66040971  0.63576154    -0.21500
C1192       C  0.36762948  0.83207676  0.62192926    -0.21500
C1193       C  0.37727227  0.83203227  0.63644065    -0.21500
C1194       C  0.37161302  0.69642248  0.60117613    -0.16800
C1195       C  0.36538691  0.79716796  0.60183751    -0.16800
C1196       C  0.39929590  0.79696227  0.65316611    -0.16800
C1197       C  0.40128195  0.69632923  0.65319406    -0.16800
H1198       H  0.36977242  0.72086586  0.57186843     0.16100
H1199       H  0.36625424  0.77526472  0.57221500     0.16100
H1200       H  0.43476997  0.71974171  0.67665046     0.16100
H1201       H  0.43425678  0.77397498  0.67642938     0.16100
H1202       H  0.37102883  0.64226738  0.61453428     0.14400
H1203       H  0.38665200  0.64232110  0.64289355     0.14400
H1204       H  0.35972241  0.84989043  0.61580776     0.14400
H1205       H  0.37822538  0.84975229  0.64370560     0.14400
H1206       H  0.36630991  0.74606195  0.61716762     0.27600
H1207       H  0.37951213  0.74630237  0.64170371     0.27600
N1208       N  0.18016934  0.74568523  0.64025945    -0.35100
N1209       N  0.18209274  0.70627024  0.61613042    -0.55700
N1210       N  0.18513914  0.75147100  0.59483723    -0.35100
N1211       N  0.18090209  0.79093388  0.61872411    -0.55700
C1212       C  0.17122397  0.72228871  0.64713950     0.28500
C1213       C  0.17136921  0.76706803  0.64858100     0.28500
C1214       C  0.18116283  0.73002981  0.58549614     0.28500
C1215       C  0.18003473  0.77487005  0.58689467     0.28500
C1216       C  0.18547484  0.68891077  0.62792373     0.37100
C1217       C  0.18928474  0.69197910  0.60389082     0.37100
C1218       C  0.18483647  0.80518777  0.63145571     0.37100
C1219       C  0.18731557  0.80840660  0.60739355     0.37100
C1220       C  0.15656635  0.72890067  0.65994000    -0.20400
C1221       C  0.15671937  0.75719132  0.66086834    -0.20400
C1222       C  0.17342164  0.73987520  0.57142450    -0.20400
C1223       C  0.17268197  0.76824324  0.57231256    -0.20400
C1224       C  0.19482246  0.66341534  0.62318984    -0.21500
C1225       C  0.19722207  0.66534789  0.60791242    -0.21500
C1226       C  0.19369880  0.83187742  0.62823324    -0.21500
C1227       C  0.19523821  0.83394275  0.61293305    -0.21500
C1228       C  0.17741955  0.69513604  0.64262413    -0.16800
C1229       C  0.17748214  0.79517048  0.64574045    -0.16800
C1230       C  0.18458543  0.80196473  0.59211600    -0.16800
C1231       C  0.18668475  0.70208601  0.58908178    -0.16800
H1232       H  0.14686265  0.71481014  0.66784644     0.16100
H1233       H  0.14714258  0.76911835  0.66961131     0.16100
H1234       H  0.16931361  0.72789657  0.56148380     0.16100
H1235       H  0.16794307  0.78241274  0.56318213     0.16100
H1236       H  0.19890719  0.64520109  0.62999435     0.14400
H1237       H  0.20356896  0.64890134  0.60058767     0.14400
H1238       H  0.19801945  0.84827010  0.63607002     0.14400
H1239       H  0.20116227  0.85222370  0.60661528     0.14400
H1240       H  0.19410764  0.74690239  0.63137417     0.27600
H1241       H  0.19456356  0.75037367  0.60535775     0.27600
C1242       C  0.01117357  0.56968387  0.28896222     0.43900
N1243       N  0.03569065  0.55819769  0.27000845     0.02800
C1244       C  0.03805778  0.94142519  0.22797919    -0.05000
H1245       H  0.05863555  0.92151007  0.28371914     0.08300
C1246       C  0.14569601  0.97803352  0.28204692    -0.05400
Co1247     Co  0.02166508  0.00694937  0.25614107     0.74200
N1248       N  0.04720587  0.95832930  0.27155203    -0.24600
Co1249     Co  0.07665777  0.96032992  0.25469605     0.74100
C1250       C  0.13702246  0.95136700  0.28841281     0.44000
N1251       N  0.11836678  0.54605831  0.27031128     0.02400
N1252       N  0.10868882  0.96238875  0.27062375     0.02500
N1253       N  0.49906870  0.97497825  0.22683488    -0.45400
H1254       H  0.47870953  0.52998387  0.28816579     0.08300
N1255       N  0.02615629  0.97586574  0.27254811     0.02800
N1256       N  0.10685333  0.96354265  0.23807960     0.02600
C1257       C  0.13527286  0.95509147  0.22027465     0.44200
N1258       N  0.09763973  0.56393522  0.26854015    -0.24000
C1259       C  0.49200792  0.53098258  0.22955754    -0.05000
N1260       N  0.03236733  0.57786218  0.27999777    -0.45100
N1261       N  0.11221267  0.94554139  0.22741053    -0.45400
C1262       C  0.00275906  0.55423715  0.21919367     0.44000
N1263       N  0.02288497  0.97678891  0.23997224     0.02800
N1264       N  0.09632425  0.55675154  0.23632042    -0.24100
N1265       N  0.01812076  0.53728231  0.27198018    -0.24500
N1266       N  0.11764928  0.53954978  0.23795426     0.02500
H1267       H  0.08704636  0.58875515  0.22006268     0.08400
H1268       H  0.16184957  0.99370231  0.22547636     0.08400
N1269       N  0.04389073  0.95922341  0.23902915    -0.24600
N1270       N  0.12671295  0.98317181  0.27107540    -0.24200
N1271       N  0.03277321  0.55165018  0.23732840     0.02800
C1272       C  0.02004905  0.94671877  0.29053511     0.44200
C1273       C  0.10229221  0.58545738  0.27750180    -0.05500
N1274       N  0.12524770  0.98397204  0.23848181    -0.24200
H1275       H  0.16354293  0.99090746  0.28490410     0.08400
N1276       N  0.49972664  0.97061486  0.28215844    -0.45400
H1277       H  0.08918604  0.60359295  0.27825819     0.08400
C1278       C  0.12738455  0.56235734  0.21787821     0.44100
C1279       C  0.49562553  0.54286962  0.28407376    -0.05000
Co1280     Co  0.06546380  0.55834047  0.25287338     0.73800
N1281       N  0.13741519  0.55424979  0.28029097    -0.45100
C1282       C  0.01058305  0.95023128  0.22203239     0.44300
N1283       N  0.02607361  0.56631651  0.22514022    -0.45100
Co1284     Co  0.12116530  0.51230644  0.25603515     0.73900
C1285       C  0.14385717  0.98055912  0.22758294    -0.05500
C1286       C  0.04518338  0.93935385  0.28240615    -0.05000
N1287       N  0.01490463  0.53125155  0.23975236    -0.24600
N1288       N  0.11394707  0.94316057  0.28085975    -0.45300
H1289       H  0.05051900  0.92355759  0.22529347     0.08300
C1290       C  0.10060508  0.57224349  0.22393977    -0.05400
Cl1291     Cl  0.07298133  0.01071095  0.25483580    -0.48400
C1292       C  0.12854768  0.57898227  0.28524562     0.44100
H1293       H  0.47343887  0.51809771  0.22911294     0.08300
N1294       N  0.13639683  0.54220948  0.22725780    -0.52600
O1295       O  0.99541229  0.72257844  0.99215122    -0.78700
O1296       O  0.09561339  0.71011286  0.01095771    -0.78700
O1297       O  0.09345663  0.71039985  0.97381809    -0.78700
O1298       O  0.03475020  0.73476764  0.03417023    -0.78600
O1299       O  0.12867835  0.72714545  0.98757188    -0.78800
O1300       O  0.03083924  0.70960845  0.01428959    -0.78700
O1301       O  0.09270968  0.73341862  0.03180077    -0.78700
O1302       O  0.03357522  0.71224578  0.97897617    -0.78700
C1303       C  0.00653905  0.71058812  0.98113757     1.11000
C1304       C  0.10075383  0.71222377  0.02484460     1.10900
C1305       C  0.12011691  0.71316375  0.97623962     1.11100
C1306       C  0.02534223  0.71334083  0.02788624     1.10900
O1307       O  0.00204024  0.76215576  0.01499464    -0.78700
O1308       O  0.10565778  0.77895987  0.98744654    -0.78700
O1309       O  0.04930671  0.75659896  0.97128742    -0.78700
O1310       O  0.09327053  0.79027721  0.02354190    -0.78600
O1311       O  0.12413052  0.76215762  0.01363974    -0.78700
O1312       O  0.01751665  0.77208397  0.98670220    -0.78700
O1313       O  0.03396919  0.79017004  0.02504643    -0.78600
O1314       O  0.07875501  0.76082907  0.97099174    -0.78700
Co1315     Co  0.02574718  0.74164615  0.00048737     1.51500
Co1316     Co  0.09826920  0.74461852  0.99871937     1.51700
Co1317     Co  0.06971851  0.73230356  0.98736308     1.51600
Co1318     Co  0.06376042  0.76203254  0.02732547     1.51500
O1319       O  0.06068113  0.75794093  0.00489951    -1.40600
C1320       C  0.00841600  0.78311525  0.02291343     1.11000
C1321       C  0.09826146  0.77808915  0.97402561     1.11100
C1322       C  0.02694444  0.77103477  0.97363699     1.11000
C1323       C  0.11863241  0.78335436  0.02137117     1.11000
N1324       N  0.26953432  0.82227655  0.88197582    -0.35100
N1325       N  0.31368905  0.80963066  0.90401217    -0.55700
N1326       N  0.35426186  0.82680307  0.88170096    -0.35100
N1327       N  0.31023224  0.83647647  0.85937013    -0.55700
C1328       C  0.25458380  0.81013164  0.89301141     0.28500
C1329       C  0.25273705  0.82347035  0.86966469     0.28500
C1330       C  0.37122249  0.81481805  0.89211589     0.28500
C1331       C  0.36940970  0.82976578  0.86906180     0.28500
C1332       C  0.29120969  0.80986908  0.91317233     0.37100
C1333       C  0.33695283  0.81104904  0.91284700     0.37100
C1334       C  0.28670181  0.84533058  0.85223405     0.37100
C1335       C  0.33207780  0.84850314  0.85226002     0.37100
C1336       C  0.22808498  0.80308436  0.88757213    -0.20400
C1337       C  0.22691392  0.81157372  0.87284121    -0.20400
C1338       C  0.39727729  0.80963870  0.88588470    -0.20400
C1339       C  0.39619916  0.81932826  0.87138033    -0.20400
C1340       C  0.30023140  0.81076600  0.92795355    -0.21500
C1341       C  0.32923379  0.81147561  0.92774858    -0.21500
C1342       C  0.29366186  0.86246185  0.84029099    -0.21500
C1343       C  0.32247498  0.86447688  0.84031198    -0.21500
C1344       C  0.26275823  0.80876229  0.90827649    -0.16800
C1345       C  0.25907009  0.83770185  0.85621952    -0.16800
C1346       C  0.36060288  0.84423687  0.85606028    -0.16800
C1347       C  0.36495463  0.81149977  0.90749707    -0.16800
H1348       H  0.21099547  0.79372495  0.89375047     0.16100
H1349       H  0.20882030  0.80999961  0.86545055     0.16100
H1350       H  0.41552060  0.80065626  0.89137645     0.16100
H1351       H  0.41337017  0.81925469  0.86353185     0.16100
H1352       H  0.28728814  0.81102620  0.93783487     0.14400
H1353       H  0.34301416  0.81249825  0.93743767     0.14400
H1354       H  0.27948318  0.87260455  0.83244985     0.14400
H1355       H  0.33491517  0.87634860  0.83244911     0.14400
H1356       H  0.28831058  0.83306339  0.88349131     0.27600
H1357       H  0.33507392  0.83630126  0.88374274     0.27600
N1358       N  0.31520234  0.68882174  0.89393475    -0.35100
N1359       N  0.27184683  0.68044575  0.87053840    -0.55700
N1360       N  0.31620653  0.66977114  0.85001107    -0.35100
N1361       N  0.35940879  0.68127649  0.87288044    -0.55700
C1362       C  0.29199286  0.69814538  0.90074772     0.28500
C1363       C  0.33764722  0.69689599  0.90223718     0.28500
C1364       C  0.29380222  0.66924783  0.84056273     0.28500
C1365       C  0.33953089  0.67139130  0.84157854     0.28500
C1366       C  0.25592370  0.67984893  0.88294806     0.37100
C1367       C  0.25654815  0.66795857  0.85968495     0.37100
C1368       C  0.37470451  0.67952434  0.88568528     0.37100
C1369       C  0.37544797  0.67031665  0.86212004     0.37100
C1370       C  0.29976592  0.71261124  0.91346868    -0.20400
C1371       C  0.32864740  0.71173296  0.91443137    -0.20400
C1372       C  0.30297348  0.67101878  0.82591985    -0.20400
C1373       C  0.33188835  0.67233543  0.82655770    -0.20400
C1374       C  0.23010619  0.66766159  0.87987677    -0.21500
C1375       C  0.23057162  0.65995857  0.86515984    -0.21500
C1376       C  0.40079081  0.66809266  0.88297941    -0.21500
C1377       C  0.40133049  0.66238698  0.86801624    -0.21500
C1378       C  0.26416660  0.69050517  0.89697370    -0.16800
C1379       C  0.36569455  0.68899136  0.89968924    -0.16800
C1380       C  0.36723421  0.66751066  0.84700106    -0.16800
C1381       C  0.26573397  0.66404684  0.84486118    -0.16800
H1382       H  0.28600276  0.72175863  0.92157761     0.16100
H1383       H  0.34146842  0.72023951  0.92333106     0.16100
H1384       H  0.29021560  0.67034948  0.81583189     0.16100
H1385       H  0.34575805  0.67268014  0.81703578     0.16100
H1386       H  0.21291030  0.66419692  0.88751476     0.14400
H1387       H  0.21381444  0.64935664  0.85926847     0.14400
H1388       H  0.41760141  0.66406253  0.89095281     0.14400
H1389       H  0.41869625  0.65312126  0.86219380     0.14400
H1390       H  0.31536673  0.67419216  0.88554376     0.27600
H1391       H  0.31593084  0.66453751  0.86128622     0.27600
C1392       C  0.00390611  0.92791124  0.72167753     0.43900
N1393       N  0.01282948  0.96281825  0.73550609     0.02800
C1394       C  0.13070164  0.54045305  0.73225184    -0.05000
H1395       H  0.15130088  0.93830771  0.74398985     0.08300
C1396       C  0.09695331  0.95005917  0.79262775    -0.05400
Co1397     Co  0.06481596  0.99210599  0.72559282     0.74200
N1398       N  0.11501270  0.96368706  0.73881536    -0.24600
Co1399     Co  0.11436702  0.99575335  0.75418266     0.74100
C1400       C  0.12334420  0.93672633  0.78842454     0.44000
N1401       N  0.02931583  0.96840874  0.77982550     0.02400
N1402       N  0.11247307  0.96780372  0.77200696     0.02500
N1403       N  0.09591042  0.53846382  0.71481015    -0.45400
H1404       H  0.04322610  0.93573124  0.70750704     0.08300
N1405       N  0.09560918  0.96239035  0.72819693     0.02800
N1406       N  0.11148888  0.52487787  0.76924543     0.02600
C1407       C  0.12417467  0.55897658  0.78311918     0.44200
N1408       N  0.01067085  0.96695406  0.76882649    -0.24000
C1409       C  0.02593921  0.54112849  0.71392014    -0.05000
N1410       N  0.48774226  0.94840031  0.73189559    -0.45100
N1411       N  0.13152623  0.54357623  0.77124717    -0.45400
C1412       C  0.00122469  0.55613495  0.71889558     0.44000
N1413       N  0.09233988  0.51971772  0.72546987     0.02800
N1414       N  0.00962331  0.52755118  0.76719677    -0.24100
N1415       N  0.03398350  0.96182498  0.72612879    -0.24500
N1416       N  0.02889215  0.52862896  0.77787065     0.02500
H1417       H  0.46947631  0.55345962  0.76271732     0.08400
H1418       H  0.08472542  0.55326691  0.79784912     0.08400
N1419       N  0.11219798  0.52048646  0.73589360    -0.24600
N1420       N  0.09195893  0.96889267  0.78179684    -0.24200
N1421       N  0.01016073  0.52335475  0.73443999     0.02800
C1422       C  0.12151965  0.92730520  0.72438012     0.44200
C1423       C  0.48630072  0.95212708  0.77113797    -0.05500
N1424       N  0.09130309  0.52677036  0.77917042    -0.24200
H1425       H  0.08467213  0.94763650  0.80266276     0.08400
N1426       N  0.09872183  0.94101523  0.71936825    -0.45400
H1427       H  0.46695967  0.94994327  0.76482428     0.08400
C1428       C  0.49918527  0.56451678  0.78234605     0.44100
C1429       C  0.03029748  0.94041730  0.71702256    -0.05000
Co1430     Co  0.01097898  0.99494636  0.75085643     0.73800
N1431       N  0.02437131  0.95034767  0.79072592    -0.45100
C1432       C  0.11954516  0.55239843  0.71832799     0.44300
N1433       N  0.48778686  0.54433603  0.73211958    -0.45100
Co1434     Co  0.06043067  0.99877450  0.77984046     0.73900
C1435       C  0.09727651  0.54772721  0.78835640    -0.05500
C1436       C  0.13286143  0.94247687  0.73716176    -0.05000
N1437       N  0.03006075  0.52144451  0.72436297    -0.24600
N1438       N  0.13166901  0.94907330  0.77558388    -0.45300
H1439       H  0.14936626  0.54593330  0.73857903     0.08300
C1440       C  0.48830210  0.54976212  0.76931188    -0.05400
Cl1441     Cl  0.06262466  0.99539804  0.75266122    -0.48400
C1442       C  0.49470033  0.94007202  0.78566275     0.44100
H1443       H  0.03814923  0.54402679  0.70388210     0.08300
N1444       N  0.02577999  0.55022252  0.78662620    -0.45200
N1445       N  0.31484102  0.65346160  0.09265763    -0.35100
N1446       N  0.27263183  0.64808527  0.11551024    -0.55700
N1447       N  0.31580163  0.63478237  0.13784647    -0.35100
N1448       N  0.35802062  0.63810212  0.11464704    -0.55700
C1449       C  0.29117388  0.65276487  0.08408718     0.28500
C1450       C  0.33686926  0.64806746  0.08368489     0.28500
C1451       C  0.29242229  0.62662020  0.14518414     0.28500
C1452       C  0.33807961  0.62310290  0.14498700     0.28500
C1453       C  0.25638161  0.65871912  0.10437331     0.37100
C1454       C  0.25680065  0.64778886  0.12797166     0.37100
C1455       C  0.37431433  0.64713036  0.10328370     0.37100
C1456       C  0.37476257  0.63735771  0.12697328     0.37100
C1457       C  0.29832651  0.64705850  0.06944143    -0.20400
C1458       C  0.32715913  0.64404164  0.06919874    -0.20400
C1459       C  0.30001215  0.61003228  0.15732896    -0.20400
C1460       C  0.32883607  0.60781200  0.15719779    -0.20400
C1461       C  0.23017500  0.66558192  0.10986910    -0.21500
C1462       C  0.23042858  0.65856754  0.12480853    -0.21500
C1463       C  0.40141876  0.65227109  0.10846960    -0.21500
C1464       C  0.40172220  0.64591048  0.12345410    -0.21500
C1465       C  0.26360062  0.65865137  0.08904853    -0.16800
C1466       C  0.36557326  0.64880593  0.08811158    -0.16800
C1467       C  0.36657222  0.62693053  0.14108610    -0.16800
C1468       C  0.26453489  0.63454170  0.14155024    -0.16800
H1469       H  0.28430331  0.64551046  0.05987600     0.16100
H1470       H  0.33960428  0.63973125  0.05943731     0.16100
H1471       H  0.28624381  0.60056117  0.16549000     0.16100
H1472       H  0.34151388  0.59622599  0.16518089     0.16100
H1473       H  0.21230296  0.67365293  0.10365861     0.14400
H1474       H  0.21288978  0.66027396  0.13235657     0.14400
H1475       H  0.41924980  0.65959378  0.10211697     0.14400
H1476       H  0.41976194  0.64725535  0.13089592     0.14400
H1477       H  0.31631025  0.66040083  0.10361243     0.27600
H1478       H  0.31675947  0.64951078  0.12929728     0.27600
N1479       N  0.31688934  0.87607772  0.14120973    -0.35100
N1480       N  0.27345545  0.86505121  0.11903422    -0.55700
N1481       N  0.31629816  0.85253644  0.09753928    -0.35100
N1482       N  0.35955225  0.86491937  0.11923128    -0.55700
C1483       C  0.29405086  0.88687729  0.14780797     0.28500
C1484       C  0.33976687  0.88780479  0.14765467     0.28500
C1485       C  0.29340991  0.85388986  0.08850457     0.28500
C1486       C  0.33909697  0.85372199  0.08867779     0.28500
C1487       C  0.25732997  0.86673500  0.13130881     0.37100
C1488       C  0.25700457  0.85420042  0.10818606     0.37100
C1489       C  0.37593113  0.86710180  0.13154154     0.37100
C1490       C  0.37564045  0.85355667  0.10863340     0.37100
C1491       C  0.30245938  0.90543597  0.15868783    -0.20400
C1492       C  0.33137105  0.90612992  0.15854098    -0.20400
C1493       C  0.30175237  0.85577927  0.07370105    -0.20400
C1494       C  0.33064228  0.85573444  0.07381540    -0.20400
C1495       C  0.23042247  0.85712517  0.12824350    -0.21500
C1496       C  0.23019932  0.84920687  0.11353977    -0.21500
C1497       C  0.40259108  0.85694551  0.12881470    -0.21500
C1498       C  0.40240021  0.84830538  0.11423114    -0.21500
C1499       C  0.26591256  0.87933395  0.14473197    -0.16800
C1500       C  0.36796933  0.88122563  0.14448468    -0.16800
C1501       C  0.36715755  0.85063217  0.09361971    -0.16800
C1502       C  0.26537631  0.85081564  0.09324275    -0.16800
H1503       H  0.28914197  0.91724857  0.16596869     0.16100
H1504       H  0.34468120  0.91854595  0.16571922     0.16100
H1505       H  0.28846857  0.85649976  0.06380589     0.16100
H1506       H  0.34387959  0.85643831  0.06404336     0.16100
H1507       H  0.21267496  0.85646061  0.13572082     0.14400
H1508       H  0.21224042  0.84120376  0.10742513     0.14400
H1509       H  0.42047404  0.85655508  0.13640385     0.14400
H1510       H  0.42010575  0.83991125  0.10830550     0.14400
H1511       H  0.31687300  0.85948445  0.13391859     0.27600
H1512       H  0.31632114  0.84726274  0.10883702     0.27600
C1513       C  0.23088482  0.61325067  0.81839424     0.14200
C1514       C  0.20553238  0.62669254  0.81477639     0.01100
C1515       C  0.20078712  0.65336195  0.82026979     0.16100
C1516       C  0.22077056  0.66604540  0.82959696     0.25500
C1517       C  0.24571247  0.65216324  0.83364943    -0.40800
C1518       C  0.25079945  0.62586402  0.82772623     0.32500
C1519       C  0.18346784  0.61193483  0.80611853     0.01200
F1520       F  0.17664062  0.66693491  0.81673791    -0.13100
F1521       F  0.27459110  0.61188994  0.83150140    -0.13700
C1522       C  0.15806028  0.60452062  0.81294739     0.16100
C1523       C  0.13840335  0.58790588  0.80547322     0.25500
C1524       C  0.14369696  0.57845279  0.79087705    -0.40800
C1525       C  0.16880492  0.58693642  0.78387198     0.32500
C1526       C  0.18851029  0.60332947  0.79145572     0.14200
F1527       F  0.15284985  0.61231094  0.82719546    -0.13100
F1528       F  0.17461039  0.57906901  0.76970978    -0.13700
F1529       F  0.11482444  0.58041487  0.81289218    -0.15900
F1530       F  0.21276052  0.61056276  0.78453132    -0.14500
F1531       F  0.23573202  0.58728610  0.81346295    -0.14500
F1532       F  0.21549981  0.69157630  0.83500941    -0.15900
C1533       C  0.47025009  0.60128260  0.81586255     0.14200
C1534       C  0.44894594  0.61734667  0.80923924     0.01100
C1535       C  0.44598537  0.61824525  0.79362335     0.16100
C1536       C  0.46307928  0.60185229  0.78473813     0.25500
C1537       C  0.48349918  0.58449638  0.79140657    -0.40800
C1538       C  0.48761349  0.58520799  0.80703066     0.32500
C1539       C  0.42806146  0.63077417  0.81870882     0.01200
F1540       F  0.42559602  0.63393668  0.78705923    -0.13100
F1541       F  0.01208532  0.57140506  0.81276409    -0.13700
C1542       C  0.42578781  0.65969513  0.81907920     0.16100
C1543       C  0.40575492  0.67197657  0.82819793     0.25500
C1544       C  0.38770789  0.65533449  0.83676430    -0.40800
C1545       C  0.38982929  0.62649837  0.83626788     0.32500
C1546       C  0.40998618  0.61427518  0.82736524     0.14200
F1547       F  0.44328650  0.67588562  0.81085555    -0.13100
F1548       F  0.37257724  0.61027968  0.84464548    -0.13700
F1549       F  0.40405353  0.69992778  0.82879704    -0.15900
F1550       F  0.41178589  0.58629175  0.82709652    -0.14500
F1551       F  0.47356510  0.60045650  0.83097016    -0.14500
F1552       F  0.45933896  0.60273297  0.76966840    -0.15900
C1553       C  0.14702264  0.88555463  0.81862043     0.14200
C1554       C  0.17589136  0.88359022  0.81576685     0.01100
C1555       C  0.18709037  0.89762213  0.80336394     0.16100
C1556       C  0.16991019  0.91437632  0.79429295     0.25500
C1557       C  0.14107557  0.91741756  0.79747691    -0.40800
C1558       C  0.12971607  0.90221859  0.80954665     0.32500
C1559       C  0.19492150  0.86963315  0.82662553     0.01200
F1560       F  0.21501949  0.89616538  0.80047362    -0.13100
F1561       F  0.10189724  0.90338329  0.81265147    -0.13700
C1562       C  0.20947840  0.84550438  0.82284615     0.16100
C1563       C  0.22964418  0.83429970  0.83272249     0.25500
C1564       C  0.23545619  0.84716662  0.84643467    -0.40800
C1565       C  0.22019774  0.87071090  0.85038559     0.32500
C1566       C  0.20011675  0.88187278  0.84055203     0.14200
F1567       F  0.20446216  0.83314697  0.80952206    -0.13100
F1568       F  0.22571409  0.88359263  0.86350817    -0.13700
F1569       F  0.24398285  0.81133900  0.82880200    -0.15900
F1570       F  0.18667470  0.90547436  0.84428886    -0.14500
F1571       F  0.13569318  0.87160767  0.83037349    -0.14500
F1572       F  0.18188920  0.92845818  0.78277104    -0.15900
C1573       C  0.41192615  0.85449549  0.82430979     0.14200
C1574       C  0.42283375  0.88094871  0.82740456     0.01100
C1575       C  0.41381092  0.89469789  0.84027907     0.16100
C1576       C  0.39385710  0.88246232  0.84966841     0.25500
C1577       C  0.38248580  0.85645246  0.84629276    -0.40800
C1578       C  0.39172242  0.84244975  0.83362541     0.32500
C1579       C  0.44209070  0.89487717  0.81669606     0.01200
F1580       F  0.42348017  0.92041708  0.84345196    -0.13100
F1581       F  0.38100407  0.81722106  0.83026273    -0.13700
C1582       C  0.43388425  0.89826573  0.80165493     0.16100
C1583       C  0.45139346  0.91183009  0.79147163     0.25500
C1584       C  0.47716894  0.92344442  0.79619837    -0.40800
C1585       C  0.48562902  0.91957811  0.81128031     0.32500
C1586       C  0.46832063  0.90531055  0.82138016     0.14200
F1587       F  0.40838548  0.88904858  0.79685330    -0.13100
F1588       F  0.01425355  0.93033099  0.81813423    -0.13700
F1589       F  0.44288094  0.91331451  0.77697216    -0.15900
F1590       F  0.47725642  0.90158935  0.83574033    -0.14500
F1591       F  0.42081650  0.84037475  0.81221851    -0.14500
F1592       F  0.38501472  0.89626711  0.86188214    -0.15900
C1593       C  0.20705364  0.69275251  0.06485594     0.14200
C1594       C  0.19321901  0.66970228  0.05867126     0.01100
C1595       C  0.20367002  0.64314174  0.06183528     0.16100
C1596       C  0.22706825  0.63965179  0.07137498     0.25500
C1597       C  0.24054323  0.66265802  0.07776711    -0.40800
C1598       C  0.23052004  0.68927138  0.07430176     0.32500
C1599       C  0.16671349  0.67374803  0.04994595     0.01200
F1600       F  0.19046832  0.62056565  0.05622665    -0.13100
F1601       F  0.24289053  0.71180107  0.08048769    -0.13700
C1602       C  0.16541514  0.66966081  0.03438210     0.16100
C1603       C  0.14222225  0.67944355  0.02594315     0.25500
C1604       C  0.11984581  0.69288925  0.03309619    -0.40800
C1605       C  0.11971633  0.69321055  0.04886564     0.32500
C1606       C  0.14309505  0.68432508  0.05714297     0.14200
F1607       F  0.18742667  0.65805608  0.02726376    -0.13100
F1608       F  0.09770264  0.70419260  0.05628319    -0.13700
F1609       F  0.14284964  0.67782571  0.01079889    -0.15900
F1610       F  0.14330856  0.68749048  0.07221499    -0.14500
F1611       F  0.19739677  0.71866021  0.06195280    -0.14500
F1612       F  0.23608494  0.61375156  0.07480670    -0.15900
C1613       C  0.48448962  0.68341045  0.05956044     0.14200
C1614       C  0.46145122  0.67313164  0.05136359     0.01100
C1615       C  0.46254870  0.67298365  0.03571270     0.16100
C1616       C  0.48581264  0.68407911  0.02828031     0.25500
C1617       C  0.50801065  0.69646022  0.03638628    -0.40800
C1618       C  0.50746602  0.69525806  0.05214746     0.32500
C1619       C  0.43532128  0.66497336  0.05910541     0.01200
F1620       F  0.44047135  0.66315793  0.02760502    -0.13100
F1621       F  0.02193612  0.71141079  0.05979443    -0.13700
C1622       C  0.41261564  0.68343601  0.05949518     0.16100
C1623       C  0.38903084  0.67735072  0.06818594     0.25500
C1624       C  0.38771598  0.65259051  0.07653079    -0.40800
C1625       C  0.40958545  0.63320773  0.07521198     0.32500
C1626       C  0.43338504  0.63952909  0.06670182     0.14200
F1627       F  0.41393539  0.70797930  0.05202047    -0.13100
F1628       F  0.40844814  0.60875776  0.08278230    -0.13700
F1629       F  0.36818675  0.69632194  0.06913387    -0.15900
F1630       F  0.45487093  0.62118721  0.06617890    -0.14500
F1631       F  0.48398685  0.68338009  0.07474561    -0.14500
F1632       F  0.48549338  0.68446805  0.01312355    -0.15900
C1633       C  0.15668127  0.82916759  0.04912726     0.14200
C1634       C  0.18421872  0.81908321  0.04829816     0.01100
C1635       C  0.19088633  0.79993999  0.03722196     0.16100
C1636       C  0.16993443  0.78979126  0.02765136     0.25500
C1637       C  0.14175401  0.79831714  0.02916911    -0.40800
C1638       C  0.13565921  0.81905558  0.03961961     0.32500
C1639       C  0.20544297  0.82734027  0.05958540     0.01200
F1640       F  0.21761656  0.79054829  0.03592812    -0.13100
F1641       F  0.10910971  0.82872071  0.04121984    -0.13700
C1642       C  0.21764572  0.80728158  0.06910973     0.16100
C1643       C  0.23688717  0.81508217  0.08018636     0.25500
C1644       C  0.24399516  0.84299013  0.08194989    -0.40800
C1645       C  0.23167645  0.86311276  0.07258283     0.32500
C1646       C  0.21260684  0.85531728  0.06139333     0.14200
F1647       F  0.21044826  0.78022707  0.06788536    -0.13100
F1648       F  0.23844309  0.89019305  0.07419366    -0.13700
F1649       F  0.24858543  0.79547434  0.08925803    -0.15900
F1650       F  0.20135350  0.87498076  0.05220668    -0.14500
F1651       F  0.14975449  0.84765067  0.05978117    -0.14500
F1652       F  0.17719447  0.77090357  0.01727635    -0.15900
C1653       C  0.41327083  0.81080673  0.06765450     0.14200
C1654       C  0.42729509  0.83224597  0.05993946     0.01100
C1655       C  0.42197559  0.85985989  0.06371966     0.16100
C1656       C  0.40293922  0.86585325  0.07502113     0.25500
C1657       C  0.38861428  0.84438331  0.08239021    -0.40800
C1658       C  0.39379341  0.81689262  0.07865433     0.32500
C1659       C  0.44802382  0.82531451  0.04837354     0.01200
F1660       F  0.43474937  0.88097168  0.05628989    -0.13100
F1661       F  0.37995680  0.79598793  0.08570735    -0.13700
C1662       C  0.44074678  0.80668510  0.03703894     0.16100
C1663       C  0.46145127  0.79535588  0.02809426     0.25500
C1664       C  0.48990537  0.80278298  0.03018515    -0.40800
C1665       C  0.49662539  0.82394784  0.04035387     0.32500
C1666       C  0.47589037  0.83485008  0.04949842     0.14200
F1667       F  0.41366484  0.79832872  0.03514222    -0.13100
F1668       F  0.01976527  0.82604209  0.04411203    -0.13700
F1669       F  0.45364680  0.77597581  0.01798567    -0.15900
F1670       F  0.48354358  0.85312064  0.06022131    -0.14500
F1671       F  0.41879029  0.78390791  0.06471387    -0.14500
F1672       F  0.39806312  0.89256071  0.07863693    -0.15900
C1673       C  0.14065994  0.78622179  0.93903564     0.14200
C1674       C  0.16289011  0.80274378  0.94433950     0.01100
C1675       C  0.16017569  0.81603030  0.95808063     0.16100
C1676       C  0.13673260  0.81093779  0.96704138     0.25500
C1677       C  0.11559668  0.79217015  0.96246405    -0.40800
C1678       C  0.11708793  0.78107629  0.94797191     0.32500
C1679       C  0.18960663  0.80484960  0.93601826     0.01200
F1680       F  0.18129214  0.83231697  0.96333325    -0.13100
F1681       F  0.09717613  0.76313682  0.94299448    -0.13700
C1682       C  0.19703245  0.82955775  0.92870992     0.16100
C1683       C  0.22181569  0.83117878  0.92045194     0.25500
C1684       C  0.23959112  0.80810965  0.91936328    -0.40800
C1685       C  0.23280653  0.78374525  0.92722527     0.32500
C1686       C  0.20805258  0.78221166  0.93559568     0.14200
F1687       F  0.17985491  0.85185233  0.92923778    -0.13100
F1688       F  0.24960786  0.76124977  0.92635655    -0.13700
F1689       F  0.22802640  0.85497909  0.91298811    -0.15900
F1690       F  0.20199411  0.75867514  0.94331410    -0.14500
F1691       F  0.14241497  0.77403336  0.92548086    -0.14500
F1692       F  0.13604618  0.82247798  0.98080596    -0.15900
C1693       C  0.48762614  0.78102679  0.93895060     0.14200
C1694       C  0.46627862  0.79893578  0.94359817     0.01100
C1695       C  0.46949662  0.81268035  0.95720967     0.16100
C1696       C  0.49240217  0.80685318  0.96664539     0.25500
C1697       C  0.51249043  0.78681208  0.96273843    -0.40800
C1698       C  0.51056316  0.77492360  0.94845134     0.32500
C1699       C  0.43993644  0.80238731  0.93473309     0.01200
F1700       F  0.44947450  0.83053906  0.96178923    -0.13100
F1701       F  0.02678875  0.75121960  0.94349512    -0.13700
C1702       C  0.41923377  0.78154302  0.93479301     0.16100
C1703       C  0.39425209  0.78480817  0.92645926     0.25500
C1704       C  0.38936206  0.80921269  0.91815895    -0.40800
C1705       C  0.40962096  0.83054224  0.91870722     0.32500
C1706       C  0.43473218  0.82705792  0.92682237     0.14200
F1707       F  0.42318100  0.75813165  0.94303819    -0.13100
F1708       F  0.40538179  0.85449329  0.91096429    -0.13700
F1709       F  0.37520651  0.76388826  0.92615631    -0.15900
F1710       F  0.45425021  0.84758849  0.92676012    -0.14500
F1711       F  0.48582111  0.76886169  0.92538695    -0.14500
F1712       F  0.49378159  0.81941931  0.98014097    -0.15900
C1713       C  0.18980786  0.69840123  0.95809279     0.14200
C1714       C  0.18129024  0.69312574  0.94332608     0.01100
C1715       C  0.15253737  0.69093048  0.93987241     0.16100
C1716       C  0.13244598  0.69577243  0.95080901     0.25500
C1717       C  0.14086345  0.70268870  0.96546955    -0.40800
C1718       C  0.16980816  0.70304567  0.96909018     0.32500
C1719       C  0.20228868  0.69204143  0.93132842     0.01200
F1720       F  0.14394243  0.68493288  0.92573910    -0.13100
F1721       F  0.17892265  0.70902052  0.98313551    -0.13700
C1722       C  0.22408667  0.67255160  0.93194457     0.16100
C1723       C  0.24425354  0.67218808  0.92073445     0.25500
C1724       C  0.24299227  0.69145043  0.90888994    -0.40800
C1725       C  0.22142192  0.71106296  0.90829243     0.32500
C1726       C  0.20104324  0.71122887  0.91938924     0.14200
F1727       F  0.22555724  0.65364591  0.94326162    -0.13100
F1728       F  0.22035968  0.73016834  0.89705920    -0.13700
F1729       F  0.26493599  0.65291772  0.92131167    -0.15900
F1730       F  0.18039185  0.73047893  0.91864848    -0.14500
F1731       F  0.21753302  0.70072659  0.96167772    -0.14500
F1732       F  0.10486457  0.69526743  0.94675250    -0.15900
C1733       C  0.47891564  0.69032216  0.94438200     0.14200
C1734       C  0.44979679  0.69083855  0.94708018     0.01100
C1735       C  0.44055801  0.69488338  0.96176512     0.16100
C1736       C  0.45978378  0.69980962  0.97333462     0.25500
C1737       C  0.48887901  0.70143188  0.97049305    -0.40800
C1738       C  0.49828265  0.69561467  0.95595149     0.32500
C1739       C  0.42887597  0.68933315  0.93459788     0.01200
F1740       F  0.41267546  0.69596091  0.96480409    -0.13100
F1741       F  0.52608272  0.69647578  0.95266446    -0.13700
C1742       C  0.40574062  0.67114156  0.93541868     0.16100
C1743       C  0.38467296  0.67173738  0.92436007     0.25500
C1744       C  0.38657423  0.69020823  0.91217026    -0.40800
C1745       C  0.40966821  0.70824045  0.91126866     0.32500
C1746       C  0.43068719  0.70769461  0.92230625     0.14200
F1747       F  0.40378498  0.65245864  0.94681212    -0.13100
F1748       F  0.41184301  0.72634673  0.89961967    -0.13700
F1749       F  0.36267319  0.65388865  0.92537508    -0.15900
F1750       F  0.45248509  0.72564471  0.92113122    -0.14500
F1751       F  0.48863210  0.68542893  0.93043579    -0.14500
F1752       F  0.44955490  0.70448651  0.98719858    -0.15900
C1753       C  0.42958502  0.92274129  0.15903981     0.14200
C1754       C  0.43295481  0.91170387  0.17356020     0.01100
C1755       C  0.41466377  0.89070077  0.17853711     0.16100
C1756       C  0.39359872  0.88061108  0.16905260     0.25500
C1757       C  0.39042339  0.89156039  0.15454460    -0.40800
C1758       C  0.40839404  0.91277608  0.14961738     0.32500
C1759       C  0.45463401  0.92289069  0.18379207     0.01200
F1760       F  0.41669639  0.88056175  0.19273255    -0.13100
F1761       F  0.40509454  0.92403502  0.13572772    -0.13700
C1762       C  0.45464882  0.95107739  0.18726815     0.16100
C1763       C  0.47341686  0.96132997  0.19791604     0.25500
C1764       C  0.49216194  0.94349847  0.20553448    -0.40800
C1765       C  0.49305959  0.91549138  0.20157599     0.32500
C1766       C  0.47447310  0.90530632  0.19070905     0.14200
F1767       F  0.43555931  0.96850192  0.18088258    -0.13100
F1768       F  0.51072764  0.89765243  0.20872194    -0.13700
F1769       F  0.47278100  0.98872758  0.20101446    -0.15900
F1770       F  0.47539984  0.87813306  0.18714839    -0.14500
F1771       F  0.44682531  0.94315059  0.15399257    -0.14500
F1772       F  0.37614033  0.86032280  0.17402335    -0.15900
C1773       C  0.20639798  0.91666175  0.16341395     0.14200
C1774       C  0.20429886  0.90187450  0.17696569     0.01100
C1775       C  0.22194933  0.87914771  0.17973428     0.16100
C1776       C  0.24181187  0.87155171  0.16913990     0.25500
C1777       C  0.24417273  0.88662670  0.15570109    -0.40800
C1778       C  0.22626926  0.90909597  0.15284251     0.32500
C1779       C  0.18621738  0.91241426  0.18887138     0.01200
F1780       F  0.22027383  0.86475903  0.19282258    -0.13100
F1781       F  0.22877998  0.92421223  0.14003366    -0.13700
C1782       C  0.15678063  0.91084720  0.18771612     0.16100
C1783       C  0.13998244  0.92377495  0.19834272     0.25500
C1784       C  0.15255194  0.93883267  0.21001069    -0.40800
C1785       C  0.18204766  0.93924735  0.21144596     0.32500
C1786       C  0.19868983  0.92606112  0.20098753     0.14200
F1787       F  0.14443398  0.89722938  0.17617952    -0.13100
F1788       F  0.19489413  0.95231922  0.22301397    -0.13700
F1789       F  0.11156128  0.92264289  0.19686075    -0.15900
F1790       F  0.22712298  0.92745180  0.20237155    -0.14500
F1791       F  0.19009693  0.93920014  0.16076128    -0.14500
F1792       F  0.25905250  0.84980223  0.17204539    -0.15900
C1793       C  0.47066227  0.60512774  0.19121145     0.14200
C1794       C  0.44955913  0.58906316  0.18436889     0.01100
C1795       C  0.44614086  0.56143069  0.18888352     0.16100
C1796       C  0.46323729  0.54998898  0.20007621     0.25500
C1797       C  0.48390806  0.56612552  0.20733331    -0.40800
C1798       C  0.48778364  0.59373359  0.20257645     0.32500
C1799       C  0.43037232  0.60079870  0.17277912     0.01200
F1800       F  0.42557037  0.54558556  0.18269102    -0.13100
F1801       F  0.00584223  0.60955806  0.20733306    -0.13700
C1802       C  0.42802617  0.58822886  0.15871082     0.16100
C1803       C  0.40730012  0.59670584  0.14846800     0.25500
C1804       C  0.38892263  0.61832220  0.15196830    -0.40800
C1805       C  0.39170985  0.63139300  0.16587469     0.32500
C1806       C  0.41223509  0.62265069  0.17622197     0.14200
F1807       F  0.44551410  0.56731415  0.15502676    -0.13100
F1808       F  0.37413620  0.65224044  0.16952616    -0.13700
F1809       F  0.40460524  0.58328498  0.13527265    -0.15900
F1810       F  0.41358074  0.63467896  0.18985557    -0.14500
F1811       F  0.47465704  0.63182486  0.18689965    -0.14500
F1812       F  0.45947441  0.52291748  0.20362021    -0.15900
C1813       C  0.15618057  0.60866508  0.18668643     0.14200
C1814       C  0.18073182  0.59436727  0.18286840     0.01100
C1815       C  0.18686988  0.56925724  0.19016266     0.16100
C1816       C  0.16907781  0.55872916  0.20116111     0.25500
C1817       C  0.14476186  0.57327249  0.20536314    -0.40800
C1818       C  0.13839539  0.59831363  0.19787418     0.32500
C1819       C  0.20057168  0.60577357  0.17165292     0.01200
F1820       F  0.21071010  0.55522470  0.18696883    -0.13100
F1821       F  0.11542644  0.61321677  0.20151050    -0.13700
C1822       C  0.21309286  0.63188216  0.17371383     0.16100
C1823       C  0.23359382  0.64159547  0.16379539     0.25500
C1824       C  0.24176628  0.62536370  0.15169863    -0.40800
C1825       C  0.22912671  0.59946899  0.14953227     0.32500
C1826       C  0.20863913  0.58976325  0.15938579     0.14200
F1827       F  0.20635595  0.64741369  0.18569734    -0.13100
F1828       F  0.23729813  0.58328125  0.13807065    -0.13700
F1829       F  0.24598356  0.66648210  0.16617976    -0.15900
F1830       F  0.19690784  0.56454192  0.15705639    -0.14500
F1831       F  0.14940687  0.63268446  0.17955343    -0.14500
F1832       F  0.17606278  0.53429295  0.20780321    -0.15900
C1833       C  0.14558589  0.63262698  0.66180660     0.14200
C1834       C  0.15943124  0.63293383  0.67579075     0.01100
C1835       C  0.18100391  0.65229667  0.67832251     0.16100
C1836       C  0.18788372  0.67167263  0.66721688     0.25500
C1837       C  0.17298653  0.67222202  0.65354245    -0.40800
C1838       C  0.15207366  0.65230030  0.65084426     0.32500
C1839       C  0.15019003  0.61390110  0.68785634     0.01200
F1840       F  0.19449299  0.65326735  0.69176696    -0.13100
F1841       F  0.13716624  0.65259422  0.63780373    -0.13700
C1842       C  0.16915624  0.59546564  0.69483672     0.16100
C1843       C  0.15956880  0.57614281  0.70542261     0.25500
C1844       C  0.13087898  0.57486886  0.70896334    -0.40800
C1845       C  0.11217078  0.59387144  0.70234297     0.32500
C1846       C  0.12177729  0.61341076  0.69201921     0.14200
F1847       F  0.19661600  0.59524028  0.69084248    -0.13100
F1848       F  0.08442934  0.59335526  0.70580492    -0.13700
F1849       F  0.17791983  0.55756779  0.71142629    -0.15900
F1850       F  0.10320215  0.63168604  0.68591388    -0.14500
F1851       F  0.12534650  0.61352502  0.65887590    -0.14500
F1852       F  0.20835557  0.69061538  0.66998264    -0.15900
C1853       C  0.14548651  0.85196279  0.66852781     0.14200
C1854       C  0.16051596  0.84941510  0.68209665     0.01100
C1855       C  0.18252099  0.83023773  0.68335577     0.16100
C1856       C  0.18883739  0.81323945  0.67130672     0.25500
C1857       C  0.17308648  0.81515764  0.65793097    -0.40800
C1858       C  0.15158648  0.83484167  0.65658023     0.32500
C1859       C  0.15236738  0.86639805  0.69493038     0.01200
F1860       F  0.19714116  0.82731683  0.69640023    -0.13100
F1861       F  0.13591106  0.83685101  0.64383065    -0.13700
C1862       C  0.12470119  0.86489883  0.70020389     0.16100
C1863       C  0.11532660  0.88387629  0.71060014     0.25500
C1864       C  0.13356458  0.90430609  0.71610058    -0.40800
C1865       C  0.16177793  0.90472678  0.71163280     0.32500
C1866       C  0.17113644  0.88585174  0.70103472     0.14200
F1867       F  0.10643513  0.84573109  0.69479438    -0.13100
F1868       F  0.17951556  0.92482932  0.71647378    -0.13700
F1869       F  0.08803622  0.88303600  0.71488759    -0.15900
F1870       F  0.19786550  0.88783097  0.69594350    -0.14500
F1871       F  0.12462713  0.87089314  0.66692687    -0.14500
F1872       F  0.20981637  0.79441919  0.67277566    -0.15900
C1873       C  0.46001580  0.58949534  0.68613901     0.14200
C1874       C  0.44765276  0.61278679  0.69257097     0.01100
C1875       C  0.44960208  0.61641922  0.70813139     0.16100
C1876       C  0.46491634  0.59767097  0.71699724     0.25500
C1877       C  0.47880275  0.57544953  0.71034709    -0.40800
C1878       C  0.47571925  0.57114845  0.69491885     0.32500
C1879       C  0.43525341  0.63437689  0.68276704     0.01200
F1880       F  0.43794505  0.63881152  0.71461490    -0.13100
F1881       F  0.98259495  0.54250063  0.68974170    -0.13700
C1882       C  0.40741394  0.64338031  0.68460354     0.16100
C1883       C  0.39621390  0.66372114  0.67502646     0.25500
C1884       C  0.41261167  0.67482474  0.66344396    -0.40800
C1885       C  0.44037788  0.66599609  0.66169420     0.32500
C1886       C  0.45171823  0.64615137  0.67136413     0.14200
F1887       F  0.39103200  0.63218991  0.69546214    -0.13100
F1888       F  0.45660173  0.67700521  0.65071626    -0.13700
F1889       F  0.36946217  0.67256082  0.67698533    -0.15900
F1890       F  0.47901971  0.63871154  0.66975814    -0.14500
F1891       F  0.45728385  0.58482123  0.67124267    -0.14500
F1892       F  0.46737006  0.60198499  0.73194013    -0.15900
C1893       C  0.44434018  0.85450842  0.66876908     0.14200
C1894       C  0.43440177  0.85640089  0.68349598     0.01100
C1895       C  0.41146428  0.83992346  0.68791702     0.16100
C1896       C  0.39920654  0.82132667  0.67787007     0.25500
C1897       C  0.40997740  0.81872744  0.66336965    -0.40800
C1898       C  0.43248060  0.83558594  0.65887224     0.32500
C1899       C  0.44921808  0.87444985  0.69430745     0.01200
F1900       F  0.40177226  0.84094665  0.70212873    -0.13100
F1901       F  0.44356183  0.83302198  0.64502082    -0.13700
C1902       C  0.43493859  0.89530324  0.70198384     0.16100
C1903       C  0.44989266  0.91375305  0.71110206     0.25500
C1904       C  0.47929989  0.91166115  0.71251187    -0.40800
C1905       C  0.00234774  0.88593557  0.70594390     0.32500
C1906       C  0.47834117  0.87146958  0.69649896     0.14200
F1907       F  0.40678736  0.89862082  0.70008968    -0.13100
F1908       F  0.03024163  0.88211264  0.70850326    -0.13700
F1909       F  0.43585869  0.93449902  0.71783152    -0.15900
F1910       F  0.00273771  0.84741672  0.68975895    -0.14500
F1911       F  0.46592033  0.87073395  0.66404191    -0.14500
F1912       F  0.37746142  0.80515753  0.68241109    -0.15900
C1913       C  0.35577847  0.60997921  0.54416716     0.14200
C1914       C  0.35171957  0.60714412  0.55965293     0.01100
C1915       C  0.33969418  0.58265437  0.56524799     0.16100
C1916       C  0.33019329  0.56209670  0.55550687     0.25500
C1917       C  0.33247502  0.56554284  0.53984328    -0.40800
C1918       C  0.34622264  0.58944810  0.53433577     0.32500
C1919       C  0.35725876  0.63065720  0.56985082     0.01200
F1920       F  0.33620951  0.57909307  0.58020793    -0.13100
F1921       F  0.34882351  0.59392641  0.51939594    -0.13700
C1922       C  0.33465472  0.64321441  0.57716279     0.16100
C1923       C  0.33937149  0.66504569  0.58700652     0.25500
C1924       C  0.36675414  0.67468871  0.58976670    -0.40800
C1925       C  0.38941872  0.66245754  0.58237005     0.32500
C1926       C  0.38469814  0.64063665  0.57241818     0.14200
F1927       F  0.30791504  0.63432402  0.57470653    -0.13100
F1928       F  0.41608102  0.67142638  0.58498157    -0.13700
F1929       F  0.31725231  0.67652352  0.59409430    -0.15900
F1930       F  0.40691263  0.62878511  0.56560104    -0.14500
F1931       F  0.36735678  0.63347641  0.53848423    -0.14500
F1932       F  0.31748373  0.53941332  0.56147006    -0.15900
C1933       C  0.32380810  0.90861006  0.56595854     0.14200
C1934       C  0.33934571  0.88646353  0.56045243     0.01100
C1935       C  0.34869632  0.88746667  0.54560261     0.16100
C1936       C  0.34194935  0.91003448  0.53624903     0.25500
C1937       C  0.32584586  0.93219198  0.54164934    -0.40800
C1938       C  0.31724255  0.93126298  0.55674268     0.32500
C1939       C  0.34608325  0.86259139  0.57037201     0.01200
F1940       F  0.36354796  0.86608642  0.54001913    -0.13100
F1941       F  0.30134479  0.95170690  0.56252602    -0.13700
C1942       C  0.32462502  0.84505708  0.57567171     0.16100
C1943       C  0.33095281  0.82339802  0.58567154     0.25500
C1944       C  0.35875890  0.81916756  0.59059927    -0.40800
C1945       C  0.38018883  0.83660999  0.58526832     0.32500
C1946       C  0.37391245  0.85808384  0.57517710     0.14200
F1947       F  0.29756154  0.84905278  0.57122109    -0.13100
F1948       F  0.40711262  0.83308267  0.59008661    -0.13700
F1949       F  0.30992667  0.80692282  0.59082561    -0.15900
F1950       F  0.39484547  0.87509496  0.57045747    -0.14500
F1951       F  0.31475436  0.90818633  0.58031690    -0.14500
F1952       F  0.35044863  0.90969213  0.52180151    -0.15900
C1953       C  0.20494755  0.59248658  0.54913858     0.14200
C1954       C  0.20463029  0.62011422  0.54414958     0.01100
C1955       C  0.21323381  0.62657337  0.52958003     0.16100
C1956       C  0.22440807  0.60610977  0.52057573     0.25500
C1957       C  0.22732454  0.57880488  0.52607125    -0.40800
C1958       C  0.21614095  0.57188534  0.54012971     0.32500
C1959       C  0.19902003  0.64246815  0.55476415     0.01200
F1960       F  0.21250119  0.65307969  0.52444251    -0.13100
F1961       F  0.21876045  0.54589131  0.54582964    -0.13700
C1962       C  0.22096437  0.66043891  0.55894718     0.16100
C1963       C  0.21665141  0.68029077  0.56987398     0.25500
C1964       C  0.19037586  0.68244775  0.57671714    -0.40800
C1965       C  0.16823523  0.66497403  0.57232295     0.32500
C1966       C  0.17255978  0.64500617  0.56140636     0.14200
F1967       F  0.24688178  0.65797768  0.55286979    -0.13100
F1968       F  0.14265384  0.66703767  0.57879370    -0.13700
F1969       F  0.23833053  0.69683081  0.57416451    -0.15900
F1970       F  0.15109511  0.62799592  0.55738868    -0.14500
F1971       F  0.19685084  0.58590571  0.56325849    -0.14500
F1972       F  0.23422880  0.61350414  0.50688415    -0.15900
C1973       C  0.20865993  0.88177877  0.53398295     0.14200
C1974       C  0.20328984  0.88897831  0.54882469     0.01100
C1975       C  0.20701830  0.91646800  0.55329216     0.16100
C1976       C  0.21822993  0.93604460  0.54333387     0.25500
C1977       C  0.22605689  0.92820326  0.52883589    -0.40800
C1978       C  0.21997401  0.90117397  0.52406118     0.32500
C1979       C  0.19788831  0.86699304  0.56000140     0.01200
F1980       F  0.20220371  0.92372813  0.56766367    -0.13100
F1981       F  0.22673989  0.89293304  0.51008742    -0.13700
C1982       C  0.21900974  0.84746523  0.56312557     0.16100
C1983       C  0.21445837  0.82633723  0.57354335     0.25500
C1984       C  0.18870061  0.82434471  0.58094591    -0.40800
C1985       C  0.16756862  0.84393999  0.57797754     0.32500
C1986       C  0.17218862  0.86527523  0.56755815     0.14200
F1987       F  0.24422735  0.84915633  0.55619177    -0.13100
F1988       F  0.14257721  0.84228510  0.58513466    -0.13700
F1989       F  0.23531691  0.80796866  0.57661025    -0.15900
F1990       F  0.15157516  0.88397943  0.56468071    -0.14500
F1991       F  0.20468549  0.85538014  0.52940832    -0.14500
F1992       F  0.22414806  0.96177452  0.54840265    -0.15900
C1993       C  0.19371555  0.65534790  0.33777357     0.14200
C1994       C  0.16653148  0.64938996  0.33238845     0.01100
C1995       C  0.14326270  0.66235927  0.33877559     0.16100
C1996       C  0.14704942  0.68127251  0.35029912     0.25500
C1997       C  0.17416989  0.68756760  0.35557018    -0.40800
C1998       C  0.19752172  0.67440047  0.34933293     0.32500
C1999       C  0.16190858  0.63067999  0.31966591     0.01200
F2000       F  0.11684908  0.65678751  0.33371690    -0.13100
F2001       F  0.22389471  0.68035874  0.35430504    -0.13700
C2002       C  0.16052523  0.60194015  0.32193413     0.16100
C2003       C  0.15132502  0.58472459  0.31034732     0.25500
C2004       C  0.14284945  0.59618627  0.29651822    -0.40800
C2005       C  0.14554456  0.62481487  0.29407336     0.32500
C2006       C  0.15520347  0.64189645  0.30554126     0.14200
F2007       F  0.16640638  0.59079758  0.33561066    -0.13100
F2008       F  0.13828558  0.63631516  0.28066063    -0.13700
F2009       F  0.14864695  0.55716991  0.31298463    -0.15900
F2010       F  0.15686039  0.66959563  0.30310139    -0.14500
F2011       F  0.21646128  0.64319249  0.33162951    -0.14500
F2012       F  0.12427252  0.69364238  0.35629071    -0.15900
C2013       C  0.19057744  0.87131656  0.34311727     0.14200
C2014       C  0.16513848  0.87363589  0.33501956     0.01100
C2015       C  0.14366923  0.85410248  0.33765395     0.16100
C2016       C  0.14731707  0.83309638  0.34837863     0.25500
C2017       C  0.17256332  0.83100324  0.35658085    -0.40800
C2018       C  0.19425253  0.85015377  0.35381033     0.32500
C2019       C  0.16055106  0.89652060  0.32400055     0.01200
F2020       F  0.11918251  0.85523260  0.32972025    -0.13100
F2021       F  0.21889558  0.84841528  0.36155534    -0.13700
C2022       C  0.17857392  0.90029669  0.31171769     0.16100
C2023       C  0.17227886  0.92007166  0.30057394     0.25500
C2024       C  0.14789358  0.93618287  0.30156214    -0.40800
C2025       C  0.13066982  0.93332423  0.31411136     0.32500
C2026       C  0.13699992  0.91382976  0.32528211     0.14200
F2027       F  0.20118103  0.88362528  0.30999904    -0.13100
F2028       F  0.10698436  0.94872278  0.31520773    -0.13700
F2029       F  0.18880900  0.92206683  0.28831278    -0.15900
F2030       F  0.11959699  0.91127336  0.33716212    -0.14500
F2031       F  0.21158642  0.88993908  0.34093147    -0.14500
F2032       F  0.12605153  0.81491044  0.35091165    -0.15900
C2033       C  0.22652565  0.58502741  0.44722349     0.14200
C2034       C  0.21227852  0.60497531  0.45554913     0.01100
C2035       C  0.20594540  0.59895643  0.47057621     0.16100
C2036       C  0.21611904  0.57467081  0.47747493     0.25500
C2037       C  0.23385605  0.55665994  0.46965158    -0.40800
C2038       C  0.23724423  0.56119033  0.45417764     0.32500
C2039       C  0.20602616  0.63252010  0.44865564     0.01200
F2040       F  0.19159412  0.61741707  0.47886032    -0.13100
F2041       F  0.25217735  0.54320937  0.44587134    -0.13700
C2042       C  0.17831107  0.64239427  0.44721992     0.16100
C2043       C  0.17272245  0.66692703  0.43916603     0.25500
C2044       C  0.19476396  0.68204686  0.43254468    -0.40800
C2045       C  0.22253933  0.67301814  0.43474321     0.32500
C2046       C  0.22812364  0.64854950  0.44271859     0.14200
F2047       F  0.15655667  0.62756071  0.45291110    -0.13100
F2048       F  0.24420039  0.68735740  0.42859668    -0.13700
F2049       F  0.14569274  0.67517023  0.43711742    -0.15900
F2050       F  0.25519355  0.64010573  0.44436869    -0.14500
F2051       F  0.23116981  0.58926959  0.43241279    -0.14500
F2052       F  0.20991935  0.56969478  0.49202056    -0.15900
C2053       C  0.17875270  0.86814139  0.44726717     0.14200
C2054       C  0.20670807  0.87737632  0.44879560     0.01100
C2055       C  0.22856698  0.86070191  0.44346557     0.16100
C2056       C  0.22250507  0.83649324  0.43567476     0.25500
C2057       C  0.19451439  0.82821260  0.43330461    -0.40800
C2058       C  0.17273528  0.84356323  0.43969538     0.32500
C2059       C  0.21350551  0.90465068  0.45543944     0.01200
F2060       F  0.25585784  0.86826054  0.44551005    -0.13100
F2061       F  0.14554977  0.83571435  0.43766232    -0.13700
C2062       C  0.20562317  0.91096817  0.47011695     0.16100
C2063       C  0.21656074  0.93447171  0.47715750     0.25500
C2064       C  0.23616937  0.95159605  0.46974637    -0.40800
C2065       C  0.24116608  0.94702175  0.45446596     0.32500
C2066       C  0.22994231  0.92379636  0.44740498     0.14200
F2067       F  0.18911135  0.89331762  0.47804837    -0.13100
F2068       F  0.25837907  0.96407581  0.44656141    -0.13700
F2069       F  0.20957880  0.93915551  0.49157615    -0.15900
F2070       F  0.23631061  0.91924404  0.43286704    -0.14500
F2071       F  0.15721311  0.88367288  0.45232668    -0.14500
F2072       F  0.24392061  0.82173717  0.42984637    -0.15900
C2073       C  0.45766515  0.60152234  0.31835843     0.14200
C2074       C  0.47430374  0.62368304  0.32327271     0.01100
C2075       C  0.50098297  0.62788249  0.31720588     0.16100
C2076       C  0.01977037  0.60208013  0.31003622     0.25500
C2077       C  0.49447534  0.58796777  0.30112778    -0.40800
C2078       C  0.46772471  0.58361980  0.30743344     0.32500
C2079       C  0.46367797  0.64353967  0.33418570     0.01200
F2080       F  0.51714641  0.64947603  0.32173821    -0.13100
F2081       F  0.45086206  0.56271389  0.30276381    -0.13700
C2082       C  0.47480767  0.64391405  0.34878891     0.16100
C2083       C  0.46699842  0.66466651  0.35863338     0.25500
C2084       C  0.44784290  0.68517798  0.35399138    -0.40800
C2085       C  0.43670550  0.68473844  0.33938362     0.32500
C2086       C  0.44454935  0.66399574  0.32954533     0.14200
F2087       F  0.49345359  0.62434570  0.35341159    -0.13100
F2088       F  0.41836967  0.70451706  0.33466700    -0.13700
F2089       F  0.47827024  0.66497422  0.37265242    -0.15900
F2090       F  0.43414818  0.66427860  0.31534482    -0.14500
F2091       F  0.43161658  0.59740513  0.32406320    -0.14500
F2092       F  0.04775907  0.60136197  0.30722488    -0.15900
C2093       C  0.50451976  0.90022318  0.32288287     0.14200
C2094       C  0.47535773  0.89554807  0.32361765     0.01100
C2095       C  0.45741972  0.91104005  0.31407385     0.16100
C2096       C  0.46860102  0.92965117  0.30348408     0.25500
C2097       C  0.49785890  0.93306293  0.30229651    -0.40800
C2098       C  0.02513525  0.91423851  0.31215134     0.32500
C2099       C  0.46420196  0.87370336  0.33391194     0.01200
F2100       F  0.42910637  0.90781757  0.31482894    -0.13100
F2101       F  0.05348768  0.91734525  0.31164840    -0.13700
C2102       C  0.47212783  0.87321141  0.34913699     0.16100
C2103       C  0.46390275  0.85134161  0.35852171     0.25500
C2104       C  0.44681134  0.82984431  0.35305127    -0.40800
C2105       C  0.43858415  0.83042224  0.33788369     0.32500
C2106       C  0.44729991  0.85204694  0.32839072     0.14200
F2107       F  0.48781187  0.89404374  0.35496890    -0.13100
F2108       F  0.42212120  0.80998182  0.33225975    -0.13700
F2109       F  0.47275927  0.85105788  0.37301070    -0.15900
F2110       F  0.43987592  0.85138798  0.31369198    -0.14500
F2111       F  0.52258776  0.88554498  0.33171670    -0.14500
F2112       F  0.45093611  0.94315958  0.29390149    -0.15900
C2113       C  0.34797868  0.62635895  0.46834999     0.14200
C2114       C  0.36571971  0.61991595  0.45645487     0.01100
C2115       C  0.37332701  0.59224820  0.45424295     0.16100
C2116       C  0.36186123  0.57113580  0.46318011     0.25500
C2117       C  0.34254923  0.57739855  0.47451228    -0.40800
C2118       C  0.33658547  0.60539072  0.47732743     0.32500
C2119       C  0.37462284  0.64187540  0.44579200     0.01200
F2120       F  0.39067550  0.58553036  0.44289314    -0.13100
F2121       F  0.31910861  0.61255379  0.48854675    -0.13700
C2122       C  0.40315182  0.64890066  0.44423044     0.16100
C2123       C  0.41125994  0.66955944  0.43400922     0.25500
C2124       C  0.39093338  0.68346331  0.42525679    -0.40800
C2125       C  0.36243239  0.67661903  0.42691333     0.32500
C2126       C  0.35433445  0.65590099  0.43704313     0.14200
F2127       F  0.42303751  0.63603141  0.45276886    -0.13100
F2128       F  0.34250134  0.68990977  0.41860018    -0.13700
F2129       F  0.43888607  0.67618255  0.43270910    -0.15900
F2130       F  0.32668972  0.64913545  0.43813513    -0.14500
F2131       F  0.34121400  0.65304867  0.47107338    -0.14500
F2132       F  0.36848333  0.54453514  0.46014577    -0.15900
C2133       C  0.36572839  0.91503688  0.45228614     0.14200
C2134       C  0.36143839  0.88679898  0.45528264     0.01100
C2135       C  0.34777693  0.87866940  0.46849212     0.16100
C2136       C  0.33754302  0.89849641  0.47826714     0.25500
C2137       C  0.34105730  0.92679928  0.47505909    -0.40800
C2138       C  0.35571503  0.93487886  0.46209985     0.32500
C2139       C  0.37019668  0.86591513  0.44434230     0.01200
F2140       F  0.34408472  0.85147246  0.47183290    -0.13100
F2141       F  0.35871757  0.96199829  0.45836054    -0.13700
C2142       C  0.39836074  0.86445979  0.43979130     0.16100
C2143       C  0.40645134  0.84498991  0.42927943     0.25500
C2144       C  0.38657749  0.82658765  0.42330696    -0.40800
C2145       C  0.35851723  0.82775452  0.42792948     0.32500
C2146       C  0.35029576  0.84748084  0.43827230     0.14200
F2147       F  0.41811506  0.88148424  0.44578199    -0.13100
F2148       F  0.33918069  0.80972747  0.42242634    -0.13700
F2149       F  0.43378835  0.84361235  0.42513525    -0.15900
F2150       F  0.32284025  0.84885807  0.44221110    -0.14500
F2151       F  0.37832421  0.92346244  0.43944506    -0.14500
F2152       F  0.32384773  0.89001993  0.49076395    -0.15900
N2153       N  0.90071362  0.25077548  0.40902642    -0.35100
N2154       N  0.92229613  0.20969750  0.38920000    -0.55700
N2155       N  0.93442056  0.25312973  0.36681661    -0.35100
N2156       N  0.91571153  0.29411402  0.38752177    -0.55700
C2157       C  0.90083202  0.22851359  0.41830167     0.28500
C2158       C  0.89842333  0.27337568  0.41764272     0.28500
C2159       C  0.94815991  0.23134906  0.36108653     0.28500
C2160       C  0.94503324  0.27631459  0.36032672     0.28500
C2161       C  0.91045601  0.19262617  0.39944318     0.37100
C2162       C  0.92834956  0.19392534  0.37732540     0.37100
C2163       C  0.90114760  0.30907910  0.39743464     0.37100
C2164       C  0.91843868  0.31015534  0.37515535     0.37100
C2165       C  0.89808199  0.23703295  0.43296723    -0.20400
C2166       C  0.89660380  0.26537013  0.43255676    -0.20400
C2167       C  0.96739818  0.24065666  0.35060634    -0.20400
C2168       C  0.96565088  0.26905749  0.35024360    -0.20400
C2169       C  0.90929961  0.16587629  0.39412786    -0.21500
C2170       C  0.92071756  0.16667419  0.38011804    -0.21500
C2171       C  0.89445145  0.33470172  0.39135436    -0.21500
C2172       C  0.90515565  0.33528231  0.37715750    -0.21500
C2173       C  0.90191262  0.20066051  0.41381686    -0.16800
C2174       C  0.89607411  0.30086650  0.41234088    -0.16800
C2175       C  0.93570496  0.30364688  0.36292193    -0.16800
C2176       C  0.94265870  0.20325909  0.36447893    -0.16800
H2177       H  0.89711202  0.22416990  0.44293439     0.16100
H2178       H  0.89408812  0.27853880  0.44214988     0.16100
H2179       H  0.98133775  0.22827503  0.34395441     0.16100
H2180       H  0.97808791  0.28272365  0.34327894     0.16100
H2181       H  0.90124154  0.14765535  0.39977622     0.14400
H2182       H  0.92333833  0.14912510  0.37287465     0.14400
H2183       H  0.88337987  0.35136233  0.39668019     0.14400
H2184       H  0.90405781  0.35254865  0.36937501     0.14400
H2185       H  0.89908370  0.25043998  0.39743947     0.27600
H2186       H  0.91680394  0.25187734  0.37357980     0.27600
N2187       N  0.68141174  0.25515058  0.37345291    -0.35100
N2188       N  0.68640173  0.29587106  0.39661775    -0.55700
N2189       N  0.69345973  0.25181798  0.41920452    -0.35100
N2190       N  0.69170413  0.21117233  0.39552977    -0.55700
C2191       C  0.68271814  0.27831049  0.36485514     0.28500
C2192       C  0.68468834  0.23341693  0.36432236     0.28500
C2193       C  0.69964589  0.27424153  0.42754341     0.28500
C2194       C  0.70223110  0.22918930  0.42698746     0.28500
C2195       C  0.67852721  0.31271499  0.38515152     0.37100
C2196       C  0.68479156  0.31101542  0.40916614     0.37100
C2197       C  0.68576721  0.19544774  0.38350058     0.37100
C2198       C  0.69304751  0.19371438  0.40742394     0.37100
C2199       C  0.68673839  0.27115801  0.35005841    -0.20400
C2200       C  0.68782673  0.24279536  0.34970940    -0.20400
C2201       C  0.71174266  0.26568422  0.44100263    -0.20400
C2202       C  0.71331433  0.23727911  0.44066120    -0.20400
C2203       C  0.67191228  0.33863971  0.39042717    -0.21500
C2204       C  0.67619020  0.33769418  0.40556268    -0.21500
C2205       C  0.68387649  0.16787346  0.38770988    -0.21500
C2206       C  0.68874324  0.16673110  0.40281204    -0.21500
C2207       C  0.67866912  0.30558966  0.36987332    -0.16800
C2208       C  0.68307172  0.20530297  0.36863328    -0.16800
C2209       C  0.69967880  0.20141687  0.42227433    -0.16800
C2210       C  0.69369147  0.30210571  0.42358996    -0.16800
H2211       H  0.68832098  0.28491483  0.34047126     0.16100
H2212       H  0.69044317  0.23045699  0.33980159     0.16100
H2213       H  0.71860269  0.27853266  0.45017985     0.16100
H2214       H  0.72171050  0.22411343  0.44948436     0.16100
H2215       H  0.66511083  0.35658049  0.38404554     0.14400
H2216       H  0.67357691  0.35499951  0.41294273     0.14400
H2217       H  0.67975831  0.15030615  0.38062621     0.14400
H2218       H  0.68916349  0.14804012  0.40956180     0.14400
H2219       H  0.67510458  0.25394056  0.38448600     0.27600
H2220       H  0.68164371  0.25184724  0.40941311     0.27600
O2221       O  0.80996183  0.44106086  0.48865385    -0.78700
O2222       O  0.82320679  0.04640312  0.51827099    -0.78700
O2223       O  0.84287933  0.02897599  0.48493626    -0.78700
O2224       O  0.80694028  0.47128051  0.53493447    -0.78600
O2225       O  0.81106388  0.05935574  0.49092209    -0.78800
O2226       O  0.82487797  0.45166376  0.51591461    -0.78700
O2227       O  0.80360520  0.02557400  0.53668341    -0.78700
O2228       O  0.84145823  0.47190473  0.48211807    -0.78700
C2229       C  0.83300548  0.44708097  0.48239317     1.11000
C2230       C  0.82051388  0.04361094  0.53207485     1.10900
C2231       C  0.83446327  0.05371837  0.48504254     1.11100
C2232       C  0.82376201  0.45382713  0.52980269     1.10900
O2233       O  0.77294081  0.43083874  0.51130467    -0.78700
O2234       O  0.75844928  0.02864865  0.49198929    -0.78700
O2235       O  0.78389905  0.47395472  0.47189155    -0.78700
O2236       O  0.75087033  0.02843946  0.52099928    -0.78600
O2237       O  0.77166380  0.06676336  0.51253522    -0.78700
O2238       O  0.75785377  0.47133144  0.49168894    -0.78700
O2239       O  0.75222073  0.46762500  0.52073235    -0.78600
O2240       O  0.78662958  0.02770029  0.47311466    -0.78700
Co2241     Co  0.79121100  0.46300090  0.50445287     1.51500
Co2242     Co  0.79071822  0.03577625  0.50582402     1.51700
Co2243     Co  0.81453491  0.00003213  0.48085498     1.51600
Co2244     Co  0.78098730  0.99787123  0.52540060     1.51500
O2245       O  0.80517964  0.99931166  0.50374453    -1.40600
C2246       C  0.75362428  0.44098619  0.51914380     1.11000
C2247       C  0.76312640  0.03427828  0.47845058     1.11100
C2248       C  0.76102962  0.46678617  0.47797568     1.11000
C2249       C  0.75211644  0.05527950  0.51985567     1.11000
N2250       N  0.86688821  0.24863345  0.60637536    -0.35100
N2251       N  0.88108915  0.20534601  0.62810792    -0.55700
N2252       N  0.89364120  0.24630794  0.65056707    -0.35100
N2253       N  0.88127786  0.28974348  0.62851567    -0.55700
C2254       C  0.86792481  0.22632106  0.59740280     0.28500
C2255       C  0.86878451  0.27145024  0.59749105     0.28500
C2256       C  0.90641077  0.22379215  0.65666170     0.28500
C2257       C  0.90476425  0.26876799  0.65731471     0.28500
C2258       C  0.87013833  0.18953264  0.61714563     0.37100
C2259       C  0.88541893  0.18841639  0.64002826     0.37100
C2260       C  0.87077500  0.30650034  0.61761007     0.37100
C2261       C  0.88321281  0.30510024  0.64103063     0.37100
C2262       C  0.86990882  0.23502928  0.58262179    -0.20400
C2263       C  0.87055924  0.26348048  0.58267970    -0.20400
C2264       C  0.92542916  0.23206043  0.66760545    -0.20400
C2265       C  0.92447106  0.26041780  0.66797819    -0.20400
C2266       C  0.86708049  0.16249668  0.62220833    -0.21500
C2267       C  0.87694866  0.16175969  0.63668170    -0.21500
C2268       C  0.86579854  0.33254924  0.62325866    -0.21500
C2269       C  0.87352688  0.33162253  0.63811022    -0.21500
C2270       C  0.86622422  0.19834216  0.60214953    -0.16800
C2271       C  0.86790564  0.29923762  0.60236379    -0.16800
C2272       C  0.89698704  0.29654839  0.65441103    -0.16800
C2273       C  0.90062492  0.19596149  0.65297571    -0.16800
H2274       H  0.87092150  0.22220944  0.57280385     0.16100
H2275       H  0.87214486  0.27676581  0.57290351     0.16100
H2276       H  0.93867111  0.21906898  0.67462259     0.16100
H2277       H  0.93701162  0.27339135  0.67524819     0.16100
H2278       H  0.85963703  0.14488863  0.61593036     0.14400
H2279       H  0.87863627  0.14349114  0.64371938     0.14400
H2280       H  0.85791144  0.35048674  0.61723854     0.14400
H2281       H  0.87298922  0.34878060  0.64575656     0.14400
H2282       H  0.86245793  0.24825861  0.61773303     0.27600
H2283       H  0.87654985  0.24634434  0.64320693     0.27600
N2284       N  0.67821048  0.24739168  0.63903122    -0.35100
N2285       N  0.68296562  0.20487034  0.61657258    -0.55700
N2286       N  0.68426361  0.24727605  0.59347101    -0.35100
N2287       N  0.67678597  0.28981276  0.61571776    -0.55700
C2288       C  0.67104032  0.22438999  0.64687012     0.28500
C2289       C  0.66785059  0.26920334  0.64648574     0.28500
C2290       C  0.68194813  0.22443388  0.58495434     0.28500
C2291       C  0.67965497  0.26944306  0.58444268     0.28500
C2292       C  0.68802877  0.18967032  0.62904462     0.37100
C2293       C  0.69104065  0.18933820  0.60495959     0.37100
C2294       C  0.67830499  0.30611044  0.62788873     0.37100
C2295       C  0.68258966  0.30614186  0.60376678     0.37100
C2296       C  0.65589269  0.23168938  0.65938822    -0.20400
C2297       C  0.65400371  0.25997985  0.65918310    -0.20400
C2298       C  0.67578035  0.23218377  0.57030145    -0.20400
C2299       C  0.67447480  0.26061403  0.56996538    -0.20400
C2300       C  0.69949064  0.16438147  0.62537196    -0.21500
C2301       C  0.70125206  0.16410064  0.61005976    -0.21500
C2302       C  0.68471182  0.33299598  0.62365430    -0.21500
C2303       C  0.68741895  0.33303044  0.60836062    -0.21500
C2304       C  0.67918695  0.19715461  0.64342715    -0.16800
C2305       C  0.67192759  0.29729365  0.64259728    -0.16800
C2306       C  0.68237629  0.29740201  0.58870887    -0.16800
C2307       C  0.68780606  0.19708813  0.58979464    -0.16800
H2308       H  0.64719514  0.21808984  0.66785849     0.16100
H2309       H  0.64359321  0.27235616  0.66745972     0.16100
H2310       H  0.67323190  0.21879233  0.56076520     0.16100
H2311       H  0.67062871  0.27335773  0.56013301     0.16100
H2312       H  0.70528631  0.14764768  0.63291303     0.14400
H2313       H  0.70890922  0.14717911  0.60344014     0.14400
H2314       H  0.68692343  0.35076336  0.63081408     0.14400
H2315       H  0.69215757  0.35087115  0.60141328     0.14400
H2316       H  0.69204931  0.24836183  0.63009805     0.27600
H2317       H  0.69219317  0.24794945  0.60431452     0.27600
C2318       C  0.50376723  0.06878794  0.28828213     0.43900
N2319       N  0.53092228  0.05869168  0.27004756     0.02800
C2320       C  0.53155209  0.43326332  0.23311022    -0.05000
H2321       H  0.54524546  0.42052071  0.29027113     0.08300
C2322       C  0.63401328  0.47833029  0.28862438    -0.05400
Co2323     Co  0.51316821  0.50255857  0.25845109     0.74200
N2324       N  0.53650497  0.45627411  0.27663749    -0.24600
Co2325     Co  0.56770637  0.45553091  0.26043730     0.74100
C2326       C  0.62320295  0.45420460  0.29679326     0.44000
N2327       N  0.61306068  0.04437241  0.27253150     0.02400
N2328       N  0.59802307  0.46079975  0.27710811     0.02500
N2329       N  0.00126903  0.46557702  0.23223555    -0.45400
H2330       H  0.98745075  0.03030348  0.28675164     0.08300
N2331       N  0.51567953  0.47417727  0.27625845     0.02800
N2332       N  0.59981242  0.45566203  0.24449580     0.02600
C2333       C  0.62927243  0.44503521  0.22741249     0.44200
N2334       N  0.59244423  0.06241814  0.27099642    -0.24000
C2335       C  0.99724426  0.04077855  0.22953821    -0.05000
N2336       N  0.52623978  0.07736676  0.28037272    -0.45100
N2337       N  0.60590320  0.43623999  0.23464353    -0.45400
C2338       C  0.50129158  0.06837843  0.22020701     0.44000
N2339       N  0.51517106  0.46969947  0.24368559     0.02800
N2340       N  0.59534525  0.06161087  0.23862960    -0.24100
N2341       N  0.51290484  0.03796047  0.27059270    -0.24500
N2342       N  0.61623293  0.04390297  0.24023794     0.02500
H2343       H  0.58853228  0.09598055  0.22336890     0.08400
H2344       H  0.65582632  0.48397175  0.23192924     0.08400
N2345       N  0.53619270  0.45197629  0.24392934    -0.24600
N2346       N  0.61657501  0.48116353  0.27674342    -0.24200
N2347       N  0.53155393  0.05833633  0.23742142     0.02800
C2348       C  0.50637978  0.44722787  0.29493485     0.44200
C2349       C  0.59596289  0.08252990  0.28088463    -0.05500
N2350       N  0.61817458  0.47615516  0.24433658    -0.24200
H2351       H  0.65207786  0.49119792  0.29107557     0.08400
N2352       N  0.00559008  0.46975454  0.28626838    -0.45400
H2353       H  0.58283973  0.10062922  0.28176302     0.08400
C2354       C  0.62890776  0.06957451  0.22178756     0.44100
C2355       C  0.00476482  0.04336505  0.28336527    -0.05000
Co2356     Co  0.56253777  0.06080618  0.25409928     0.73800
N2357       N  0.63145650  0.05160305  0.28306853    -0.45100
C2358       C  0.50485257  0.44165667  0.22593904     0.44300
N2359       N  0.52524910  0.07714655  0.22698354    -0.45100
Co2360     Co  0.61705833  0.01329829  0.25662840     0.73900
C2361       C  0.63747297  0.47129881  0.23396952    -0.05500
C2362       C  0.53259923  0.43864958  0.28804684    -0.05000
N2363       N  0.51295391  0.03807189  0.23801162    -0.24600
N2364       N  0.60119465  0.44440740  0.28890180    -0.45300
H2365       H  0.54454558  0.41545992  0.23104055     0.08300
C2366       C  0.60147534  0.07894816  0.22720110    -0.05400
Cl2367     Cl  0.56465933  0.50586268  0.25804637    -0.48400
C2368       C  0.62178275  0.07550486  0.28878827     0.44100
H2369       H  0.97879579  0.02779300  0.22848207     0.08300
N2370       N  0.63642910  0.04795260  0.23048466    -0.52600
O2371       O  0.49752782  0.22216523  0.99413796    -0.78700
O2372       O  0.59599349  0.20493307  0.01195101    -0.78700
O2373       O  0.59569201  0.21201933  0.97559551    -0.78700
O2374       O  0.53610023  0.22548263  0.03658477    -0.78600
O2375       O  0.63099545  0.22575121  0.99019542    -0.78800
O2376       O  0.53332894  0.20462054  0.01523616    -0.78700
O2377       O  0.59369123  0.22271370  0.03442206    -0.78700
O2378       O  0.53583682  0.21350415  0.98074971    -0.78700
C2379       C  0.50873868  0.21171176  0.98269566     1.11000
C2380       C  0.60107551  0.20335100  0.02586500     1.10900
C2381       C  0.62239105  0.21405526  0.97811930     1.11100
C2382       C  0.52840671  0.20490372  0.02904158     1.10900
O2383       O  0.50433281  0.25746762  0.01901269    -0.78700
O2384       O  0.60929671  0.27776292  0.99304622    -0.78700
O2385       O  0.55246404  0.25898928  0.97545150    -0.78700
O2386       O  0.59605992  0.28111703  0.02992721    -0.78600
O2387       O  0.62650117  0.25465371  0.01851365    -0.78700
O2388       O  0.52037091  0.27216848  0.99135480    -0.78700
O2389       O  0.53679269  0.28242361  0.03091185    -0.78600
O2390       O  0.58188362  0.26292595  0.97577134    -0.78700
Co2391     Co  0.52811776  0.23931671  0.00351279     1.51500
Co2392     Co  0.60060597  0.24161480  0.00218387     1.51700
Co2393     Co  0.57211420  0.23161695  0.99029967     1.51600
Co2394     Co  0.56573530  0.25316959  0.03164715     1.51500
O2395       O  0.56315222  0.25423123  0.00901398    -1.40600
C2396       C  0.51112226  0.27722813  0.02773556     1.11000
C2397       C  0.60191452  0.27905347  0.97960181     1.11100
C2398       C  0.53011940  0.27312234  0.97832812     1.11000
C2399       C  0.62128006  0.27389414  0.02767012     1.11000
N2400       N  0.77046719  0.33571204  0.88655744    -0.35100
N2401       N  0.81439622  0.31941862  0.90826722    -0.55700
N2402       N  0.85578026  0.33712745  0.88679634    -0.35100
N2403       N  0.81193828  0.35047718  0.86470848    -0.55700
C2404       C  0.75524547  0.32203459  0.89697219     0.28500
C2405       C  0.75388930  0.33889269  0.87423002     0.28500
C2406       C  0.87242769  0.32483929  0.89723392     0.28500
C2407       C  0.87112347  0.33989976  0.87424229     0.28500
C2408       C  0.79170245  0.31808579  0.91721742     0.37100
C2409       C  0.83730906  0.31947140  0.91738031     0.37100
C2410       C  0.78905148  0.36088168  0.85758595     0.37100
C2411       C  0.83453545  0.36106009  0.85763867     0.37100
C2412       C  0.72870827  0.31627718  0.89115341    -0.20400
C2413       C  0.72784421  0.32698124  0.87681827    -0.20400
C2414       C  0.89862784  0.31964562  0.89122215    -0.20400
C2415       C  0.89780897  0.32917776  0.87670082    -0.20400
C2416       C  0.80025968  0.31663489  0.93208871    -0.21500
C2417       C  0.82919624  0.31749931  0.93218493    -0.21500
C2418       C  0.79713129  0.37784843  0.84579014    -0.21500
C2419       C  0.82601391  0.37791944  0.84580497    -0.21500
C2420       C  0.76342764  0.31753215  0.91209877    -0.16800
C2421       C  0.76102362  0.35402938  0.86115753    -0.16800
C2422       C  0.86268798  0.35437175  0.86118130    -0.16800
C2423       C  0.86541103  0.32039045  0.91238070    -0.16800
H2424       H  0.71148115  0.30606114  0.89681162     0.16100
H2425       H  0.70991856  0.32651303  0.86926430     0.16100
H2426       H  0.91666257  0.31045586  0.89681257     0.16100
H2427       H  0.91514043  0.32888050  0.86895539     0.16100
H2428       H  0.78704984  0.31522296  0.94185253     0.14400
H2429       H  0.84269019  0.31686213  0.94200680     0.14400
H2430       H  0.78365113  0.38885252  0.83793985     0.14400
H2431       H  0.83921827  0.38896840  0.83795189     0.14400
H2432       H  0.78950028  0.34572587  0.88856430     0.27600
H2433       H  0.83659087  0.34661411  0.88875292     0.27600
N2434       N  0.81798341  0.18256207  0.89431577    -0.35100
N2435       N  0.77373835  0.17420332  0.87215092    -0.55700
N2436       N  0.81687883  0.16191206  0.85073954    -0.35100
N2437       N  0.86116587  0.17313689  0.87222111    -0.55700
C2438       C  0.79562178  0.19292528  0.90156233     0.28500
C2439       C  0.84135933  0.19037579  0.90189798     0.28500
C2440       C  0.79371022  0.16225711  0.84191436     0.28500
C2441       C  0.83931830  0.16396107  0.84167107     0.28500
C2442       C  0.75811135  0.17512100  0.88464985     0.37100
C2443       C  0.75779579  0.16136907  0.86172780     0.37100
C2444       C  0.87691065  0.17112191  0.88482342     0.37100
C2445       C  0.87645438  0.16175253  0.86126340     0.37100
C2446       C  0.80492232  0.20775728  0.91385536    -0.20400
C2447       C  0.83385363  0.20605740  0.91409612    -0.20400
C2448       C  0.80138552  0.16497167  0.82705586    -0.20400
C2449       C  0.83027204  0.16623580  0.82690345    -0.20400
C2450       C  0.73183381  0.16356037  0.88204684    -0.21500
C2451       C  0.73173238  0.15457491  0.86753885    -0.21500
C2452       C  0.90255186  0.15895106  0.88181884    -0.21500
C2453       C  0.90225208  0.15297182  0.86685080    -0.21500
C2454       C  0.76717456  0.18659693  0.89831597    -0.16800
C2455       C  0.86890228  0.18137120  0.89883062    -0.16800
C2456       C  0.86743512  0.15962975  0.84624581    -0.16800
C2457       C  0.76624617  0.15674590  0.84688367    -0.16800
H2458       H  0.79214192  0.21798363  0.92205534     0.16100
H2459       H  0.84774230  0.21479512  0.92247734     0.16100
H2460       H  0.78762463  0.16506996  0.81733373     0.16100
H2461       H  0.84319325  0.16733584  0.81701715     0.16100
H2462       H  0.71471029  0.16138688  0.88985685     0.14400
H2463       H  0.71444250  0.14424085  0.86194599     0.14400
H2464       H  0.91962982  0.15472729  0.88960162     0.14400
H2465       H  0.91898235  0.14305191  0.86082966     0.14400
H2466       H  0.81722949  0.16765733  0.88604935     0.27600
H2467       H  0.81737522  0.15580589  0.86192446     0.27600
C2468       C  0.49370039  0.42939292  0.72338748     0.43900
N2469       N  0.50427138  0.46425078  0.73695385     0.02800
C2470       C  0.63339013  0.04011155  0.73169807    -0.05000
H2471       H  0.64346174  0.43664148  0.74238192     0.08300
C2472       C  0.59090219  0.44914028  0.79338549    -0.05400
Co2473     Co  0.55658950  0.49228144  0.72630356     0.74200
N2474       N  0.60658217  0.46188098  0.73847484    -0.24600
Co2475     Co  0.60739434  0.49341277  0.75422307     0.74100
C2476       C  0.61751317  0.43600713  0.78937986     0.44000
N2477       N  0.52202491  0.46879707  0.78116097     0.02400
N2478       N  0.60519701  0.46511079  0.77206875     0.02500
N2479       N  0.59936871  0.03963721  0.71378347    -0.45400
H2480       H  0.53241279  0.43605542  0.70858816     0.08300
N2481       N  0.58684425  0.46155239  0.72799808     0.02800
N2482       N  0.61300792  0.02316237  0.76788204     0.02600
C2483       C  0.62608987  0.05641884  0.78221253     0.44200
N2484       N  0.50319855  0.46809614  0.77023391    -0.24000
C2485       C  0.53031773  0.04310612  0.71160448    -0.05000
N2486       N  0.98820016  0.44390518  0.73474464    -0.45100
N2487       N  0.63341619  0.04132634  0.77021537    -0.45400
C2488       C  0.50534241  0.05848389  0.71566884     0.44000
N2489       N  0.59517775  0.02016683  0.72398090     0.02800
N2490       N  0.51174858  0.02990361  0.76539105    -0.24100
N2491       N  0.52483525  0.46275865  0.72721441    -0.24500
N2492       N  0.53065997  0.02947417  0.77627242     0.02500
H2493       H  0.97379894  0.05039618  0.76019296     0.08400
H2494       H  0.58635593  0.05062820  0.79672907     0.08400
N2495       N  0.61456147  0.02009658  0.73463960    -0.24600
N2496       N  0.58509748  0.46678209  0.78209239    -0.24200
N2497       N  0.51292749  0.02676504  0.73215786     0.02800
C2498       C  0.61293661  0.42704779  0.72286318     0.44200
C2499       C  0.98838076  0.44837224  0.77320181    -0.05500
N2500       N  0.59272028  0.02512073  0.77772201    -0.24200
H2501       H  0.57966584  0.44835275  0.80382590     0.08400
N2502       N  0.58984603  0.44111196  0.71849293    -0.45400
H2503       H  0.96992723  0.44439134  0.76643709     0.08400
C2504       C  0.00163142  0.06313920  0.78031013     0.44100
C2505       C  0.52010576  0.44128190  0.71825278    -0.05000
Co2506     Co  0.50409995  0.49611685  0.75252442     0.73800
N2507       N  0.51544926  0.45213957  0.79246590    -0.45100
C2508       C  0.62296967  0.05308993  0.71791647     0.44300
N2509       N  0.99396051  0.04217297  0.72904813    -0.45100
Co2510     Co  0.55466810  0.49773739  0.78070875     0.73900
C2511       C  0.59888953  0.04554840  0.78716064    -0.05500
C2512       C  0.62449920  0.44100784  0.73601630    -0.05000
N2513       N  0.53331875  0.02401875  0.72241286    -0.24600
N2514       N  0.62492710  0.44716819  0.77603909    -0.45300
H2515       H  0.65154544  0.04523814  0.73851544     0.08300
C2516       C  0.99235724  0.04782195  0.76713839    -0.05400
Cl2517     Cl  0.55570392  0.49476353  0.75344948    -0.48400
C2518       C  0.99710525  0.43712980  0.78780843     0.44100
H2519       H  0.54341354  0.04516875  0.70183697     0.08300
N2520       N  0.52728474  0.04984271  0.78581104    -0.45200
N2521       N  0.81309613  0.14711154  0.09263174    -0.35100
N2522       N  0.77124246  0.13762854  0.11513405    -0.55700
N2523       N  0.81551735  0.13194257  0.13829944    -0.35100
N2524       N  0.85744692  0.13795568  0.11557441    -0.55700
C2525       C  0.78990246  0.14434721  0.08380245     0.28500
C2526       C  0.83585923  0.14378210  0.08390478     0.28500
C2527       C  0.79280890  0.12229527  0.14569122     0.28500
C2528       C  0.83862849  0.12353707  0.14605847     0.28500
C2529       C  0.75420862  0.14626358  0.10381552     0.37100
C2530       C  0.75557223  0.13782505  0.12763454     0.37100
C2531       C  0.87321076  0.14614058  0.10383822     0.37100
C2532       C  0.87447758  0.13881949  0.12781001     0.37100
C2533       C  0.79808541  0.13977642  0.06920651    -0.20400
C2534       C  0.82706661  0.13942655  0.06926717    -0.20400
C2535       C  0.80154931  0.10790849  0.15841985    -0.20400
C2536       C  0.83046333  0.10871969  0.15865785    -0.20400
C2537       C  0.72769189  0.15215928  0.10918919    -0.21500
C2538       C  0.72853131  0.14671495  0.12427667    -0.21500
C2539       C  0.90033919  0.15228175  0.10867576    -0.21500
C2540       C  0.90111490  0.14765486  0.12384596    -0.21500
C2541       C  0.76162257  0.14660638  0.08853683    -0.16800
C2542       C  0.86432861  0.14587957  0.08865257    -0.16800
C2543       C  0.86683632  0.12961127  0.14228430    -0.16800
C2544       C  0.76441540  0.12744878  0.14172511    -0.16800
H2545       H  0.78460103  0.13691723  0.05951703     0.16100
H2546       H  0.84017473  0.13634546  0.05960951     0.16100
H2547       H  0.78845454  0.09794929  0.16672937     0.16100
H2548       H  0.84391399  0.09936637  0.16712763     0.16100
H2549       H  0.70949244  0.15916514  0.10286261     0.14400
H2550       H  0.71108584  0.14860283  0.13187242     0.14400
H2551       H  0.91790643  0.15903713  0.10194143     0.14400
H2552       H  0.91931561  0.15010158  0.13108471     0.14400
H2553       H  0.81356845  0.15354751  0.10370609     0.27600
H2554       H  0.81507333  0.14586695  0.12932223     0.27600
N2555       N  0.81717906  0.35737119  0.15195542    -0.35100
N2556       N  0.77359272  0.34771833  0.12961863    -0.55700
N2557       N  0.81618376  0.33631165  0.10773235    -0.35100
N2558       N  0.85978702  0.34745694  0.12929308    -0.55700
C2559       C  0.79448599  0.36850210  0.15867499     0.28500
C2560       C  0.84052579  0.36812753  0.15850736     0.28500
C2561       C  0.79312258  0.33781885  0.09885786     0.28500
C2562       C  0.83875708  0.33792634  0.09874065     0.28500
C2563       C  0.75791532  0.34813948  0.14212368     0.37100
C2564       C  0.75750434  0.33589863  0.11888280     0.37100
C2565       C  0.87614202  0.34802448  0.14167440     0.37100
C2566       C  0.87556079  0.33634574  0.11844984     0.37100
C2567       C  0.80361315  0.38643969  0.16972675    -0.20400
C2568       C  0.83263370  0.38606954  0.16967757    -0.20400
C2569       C  0.80114629  0.34046346  0.08401943    -0.20400
C2570       C  0.83002247  0.34059871  0.08395846    -0.20400
C2571       C  0.73178465  0.33634919  0.13932834    -0.21500
C2572       C  0.73145876  0.32878373  0.12455696    -0.21500
C2573       C  0.90247503  0.33725398  0.13869435    -0.21500
C2574       C  0.90209593  0.32983927  0.12391777    -0.21500
C2575       C  0.76590952  0.36177495  0.15544235    -0.16800
C2576       C  0.86867817  0.36124465  0.15500369    -0.16800
C2577       C  0.86677237  0.33393619  0.10345251    -0.16800
C2578       C  0.76532961  0.33373405  0.10375707    -0.16800
H2579       H  0.79075235  0.39853095  0.17709717     0.16100
H2580       H  0.84635058  0.39775138  0.17700588     0.16100
H2581       H  0.78770601  0.34129185  0.07418907     0.16100
H2582       H  0.84307541  0.34161522  0.07411998     0.16100
H2583       H  0.71451997  0.33402567  0.14703569     0.14400
H2584       H  0.71391998  0.31953524  0.11862554     0.14400
H2585       H  0.92027773  0.33553344  0.14628762     0.14400
H2586       H  0.91947019  0.32118200  0.11783156     0.14400
H2587       H  0.81682890  0.34130776  0.14432379     0.27600
H2588       H  0.81643889  0.33032939  0.11893477     0.27600
C2589       C  0.73152501  0.10491257  0.82130480     0.14200
C2590       C  0.70698774  0.11900205  0.81685162     0.01100
C2591       C  0.70237760  0.14597043  0.82195136     0.16100
C2592       C  0.72187210  0.15853508  0.83151928     0.25500
C2593       C  0.74606952  0.14421370  0.83618723    -0.40800
C2594       C  0.75093677  0.11744296  0.83089914     0.32500
C2595       C  0.68566908  0.10497674  0.80747361     0.01200
F2596       F  0.67896856  0.16007585  0.81767013    -0.13100
F2597       F  0.77417327  0.10320366  0.83536560    -0.13700
C2598       C  0.65846124  0.10063253  0.81291785     0.16100
C2599       C  0.63872094  0.08571770  0.80458986     0.25500
C2600       C  0.64593026  0.07449394  0.79062636    -0.40800
C2601       C  0.67305255  0.07983891  0.78499183     0.32500
C2602       C  0.69270084  0.09485250  0.79336413     0.14200
F2603       F  0.65127790  0.10999621  0.82661989    -0.13100
F2604       F  0.68085208  0.07027918  0.77144062    -0.13700
F2605       F  0.61284495  0.08207292  0.81049940    -0.15900
F2606       F  0.71872658  0.09941424  0.78771972    -0.14500
F2607       F  0.73615695  0.07863530  0.81679453    -0.14500
F2608       F  0.71708812  0.18455471  0.83636723    -0.15900
C2609       C  0.97125195  0.10275702  0.81256473     0.14200
C2610       C  0.94805808  0.11550685  0.80565719     0.01100
C2611       C  0.94410506  0.11351106  0.79016849     0.16100
C2612       C  0.96244237  0.09766610  0.78171828     0.25500
C2613       C  0.98474033  0.08319482  0.78874846    -0.40800
C2614       C  0.98958530  0.08681969  0.80419063     0.32500
C2615       C  0.92648711  0.12824558  0.81492458     0.01200
F2616       F  0.92201757  0.12631229  0.78332367    -0.13100
F2617       F  0.51521881  0.06822522  0.81256914    -0.13700
C2618       C  0.93080835  0.15445091  0.82109524     0.16100
C2619       C  0.91127402  0.16513742  0.83106013     0.25500
C2620       C  0.88747632  0.14950510  0.83501431    -0.40800
C2621       C  0.88303250  0.12346877  0.82860488     0.32500
C2622       C  0.90234187  0.11298815  0.81855052     0.14200
F2623       F  0.95409470  0.16938288  0.81761325    -0.13100
F2624       F  0.86037749  0.10788708  0.83246474    -0.13700
F2625       F  0.91572583  0.19044099  0.83704834    -0.15900
F2626       F  0.89805639  0.08749187  0.81274923    -0.14500
F2627       F  0.97524308  0.10457411  0.82758675    -0.14500
F2628       F  0.95809057  0.09636344  0.76671977    -0.15900
C2629       C  0.64753868  0.39614193  0.82297999     0.14200
C2630       C  0.67628063  0.39530463  0.81956095     0.01100
C2631       C  0.68538798  0.40675825  0.80595206     0.16100
C2632       C  0.66623754  0.41938895  0.79605291     0.25500
C2633       C  0.63742177  0.42099018  0.79957904    -0.40800
C2634       C  0.62826013  0.40875518  0.81309569     0.32500
C2635       C  0.69699768  0.38369516  0.83046410     0.01200
F2636       F  0.71310562  0.40660294  0.80247617    -0.13100
F2637       F  0.60067114  0.40872593  0.81679585    -0.13700
C2638       C  0.71275997  0.36009024  0.82704420     0.16100
C2639       C  0.73314783  0.35001032  0.83715394     0.25500
C2640       C  0.73812801  0.36344446  0.85079486    -0.40800
C2641       C  0.72227301  0.38691831  0.85423491     0.32500
C2642       C  0.70186383  0.39694518  0.84416562     0.14200
F2643       F  0.70840114  0.34687360  0.81390479    -0.13100
F2644       F  0.72722026  0.40060740  0.86717005    -0.13700
F2645       F  0.74827120  0.32732619  0.83359550    -0.15900
F2646       F  0.68750079  0.42021048  0.84753737    -0.14500
F2647       F  0.63813609  0.38465122  0.83592864    -0.14500
F2648       F  0.67623174  0.43076064  0.78320681    -0.15900
C2649       C  0.91330400  0.35641668  0.82892700     0.14200
C2650       C  0.92636352  0.38220447  0.83105714     0.01100
C2651       C  0.91899457  0.39831796  0.84337998     0.16100
C2652       C  0.89843487  0.38901962  0.85326502     0.25500
C2653       C  0.88487246  0.36368058  0.85085794    -0.40800
C2654       C  0.89256883  0.34724072  0.83877153     0.32500
C2655       C  0.94559015  0.39359032  0.81970306     0.01200
F2656       F  0.93083025  0.42357163  0.84544836    -0.13100
F2657       F  0.87983116  0.32247558  0.83650345    -0.13700
C2658       C  0.93551851  0.39857781  0.80515129     0.16100
C2659       C  0.95240242  0.41182145  0.79461128     0.25500
C2660       C  0.97985037  0.42065057  0.79846192    -0.40800
C2661       C  0.99023174  0.41461326  0.81299003     0.32500
C2662       C  0.97318439  0.40128218  0.82351260     0.14200
F2663       F  0.90869838  0.39171886  0.80131509    -0.13100
F2664       F  0.51339336  0.41097857  0.81417533    -0.13700
F2665       F  0.94119638  0.41644672  0.78082519    -0.15900
F2666       F  0.98347744  0.39617448  0.83749654    -0.14500
F2667       F  0.92043069  0.34036617  0.81721164    -0.14500
F2668       F  0.89121670  0.40496632  0.86500675    -0.15900
C2669       C  0.71273598  0.17456768  0.05796935     0.14200
C2670       C  0.69177877  0.15397189  0.05734471     0.01100
C2671       C  0.69472553  0.13021430  0.06640115     0.16100
C2672       C  0.71786991  0.12741969  0.07616286     0.25500
C2673       C  0.73845043  0.14838302  0.07708401    -0.40800
C2674       C  0.73584706  0.17178593  0.06772488     0.32500
C2675       C  0.66592182  0.15878734  0.04818099     0.01200
F2676       F  0.67501498  0.10988129  0.06589891    -0.13100
F2677       F  0.75512221  0.19248225  0.06848026    -0.13700
C2678       C  0.66771908  0.16372146  0.03268525     0.16100
C2679       C  0.64487117  0.17503548  0.02471908     0.25500
C2680       C  0.61996851  0.18183519  0.03220152    -0.40800
C2681       C  0.61711484  0.17373583  0.04727917     0.32500
C2682       C  0.63990454  0.16235085  0.05521812     0.14200
F2683       F  0.69227322  0.15935718  0.02548932    -0.13100
F2684       F  0.59292370  0.17896706  0.05464364    -0.13700
F2685       F  0.64828919  0.18208048  0.01011706    -0.15900
F2686       F  0.63731065  0.15730449  0.07011041    -0.14500
F2687       F  0.71007883  0.19806920  0.04963376    -0.14500
F2688       F  0.71991157  0.10450456  0.08500260    -0.15900
C2689       C  0.98280568  0.17307086  0.06041783     0.14200
C2690       C  0.96151239  0.16025302  0.05205551     0.01100
C2691       C  0.96526270  0.15599028  0.03671500     0.16100
C2692       C  0.98898389  0.16684466  0.02951659     0.25500
C2693       C  0.00890286  0.18249234  0.03762571    -0.40800
C2694       C  0.00642714  0.18389768  0.05331784     0.32500
C2695       C  0.93433205  0.15447377  0.05920925     0.01200
F2696       F  0.94507396  0.14295867  0.02856790    -0.13100
F2697       F  0.53356015  0.18959887  0.05991955    -0.13700
C2698       C  0.91425691  0.17562981  0.06002920     0.16100
C2699       C  0.89046732  0.17220578  0.06892286     0.25500
C2700       C  0.88658259  0.14762662  0.07713913    -0.40800
C2701       C  0.90597140  0.12594473  0.07570311     0.32500
C2702       C  0.92980675  0.12941714  0.06683138     0.14200
F2703       F  0.91858482  0.20016899  0.05288416    -0.13100
F2704       F  0.90251254  0.10202175  0.08355521    -0.13700
F2705       F  0.87211602  0.19344113  0.07025258    -0.15900
F2706       F  0.94919505  0.10895184  0.06628421    -0.14500
F2707       F  0.97969082  0.17690098  0.07533673    -0.14500
F2708       F  0.99107076  0.16409636  0.01447695    -0.15900
C2709       C  0.65931464  0.31725190  0.05671833     0.14200
C2710       C  0.68617600  0.30531502  0.05694965     0.01100
C2711       C  0.69246529  0.28483066  0.04648851     0.16100
C2712       C  0.67175260  0.27526837  0.03657149     0.25500
C2713       C  0.64436395  0.28641371  0.03672075    -0.40800
C2714       C  0.63868478  0.30804874  0.04669867     0.32500
C2715       C  0.70672462  0.31275351  0.06884856     0.01200
F2716       F  0.71858186  0.27361756  0.04609064    -0.13100
F2717       F  0.61279408  0.31969354  0.04726884    -0.13700
C2718       C  0.71803652  0.29205250  0.07831356     0.16100
C2719       C  0.73662171  0.29897360  0.08989335     0.25500
C2720       C  0.74374987  0.32668681  0.09236973    -0.40800
C2721       C  0.73219802  0.34744987  0.08313959     0.32500
C2722       C  0.71406948  0.34053943  0.07134369     0.14200
F2723       F  0.71068421  0.26515455  0.07651222    -0.13100
F2724       F  0.73918053  0.37432976  0.08534519    -0.13700
F2725       F  0.74784475  0.27864721  0.09865787    -0.15900
F2726       F  0.70411795  0.36091928  0.06219022    -0.14500
F2727       F  0.65248408  0.33685318  0.06678797    -0.14500
F2728       F  0.67832071  0.25424709  0.02732074    -0.15900
C2729       C  0.90755665  0.29006961  0.07679389     0.14200
C2730       C  0.92412243  0.31001044  0.06946236     0.01100
C2731       C  0.92216448  0.33790875  0.07354504     0.16100
C2732       C  0.90395023  0.34573100  0.08487633     0.25500
C2733       C  0.88736241  0.32576656  0.09211232    -0.40800
C2734       C  0.88915576  0.29796620  0.08800278     0.32500
C2735       C  0.94471047  0.30153433  0.05821861     0.01200
F2736       F  0.93776754  0.35752160  0.06645635    -0.13100
F2737       F  0.87307650  0.27853965  0.09492215    -0.13700
C2738       C  0.93617832  0.28751847  0.04525646     0.16100
C2739       C  0.95615878  0.27865394  0.03499882     0.25500
C2740       C  0.98498687  0.28380854  0.03757515    -0.40800
C2741       C  0.99324892  0.29812952  0.05057904     0.32500
C2742       C  0.97331818  0.30676582  0.06076794     0.14200
F2743       F  0.90851695  0.28228444  0.04260126    -0.13100
F2744       F  0.52144119  0.30722458  0.05456476    -0.13700
F2745       F  0.94728848  0.26470480  0.02272023    -0.15900
F2746       F  0.98212245  0.31919815  0.07353882    -0.14500
F2747       F  0.90972208  0.26291761  0.07334472    -0.14500
F2748       F  0.90217750  0.37274171  0.08866687    -0.15900
C2749       C  0.64569604  0.28752843  0.94530307     0.14200
C2750       C  0.66771090  0.30411619  0.95072408     0.01100
C2751       C  0.66487355  0.31702369  0.96460216     0.16100
C2752       C  0.64129830  0.31165346  0.97346693     0.25500
C2753       C  0.62003306  0.29337750  0.96852491    -0.40800
C2754       C  0.62187587  0.28254289  0.95399292     0.32500
C2755       C  0.69360810  0.30779832  0.94185764     0.01200
F2756       F  0.68578837  0.33343763  0.96997062    -0.13100
F2757       F  0.60192048  0.26497988  0.94868755    -0.13700
C2758       C  0.69994073  0.33366147  0.93549539     0.16100
C2759       C  0.72320296  0.33681206  0.92621659     0.25500
C2760       C  0.74055655  0.31417017  0.92317321    -0.40800
C2761       C  0.73487515  0.28843932  0.92993183     0.32500
C2762       C  0.71155325  0.28530947  0.93927681     0.14200
F2763       F  0.68301306  0.35565334  0.93788433    -0.13100
F2764       F  0.75146895  0.26633971  0.92717257    -0.13700
F2765       F  0.72849492  0.36186712  0.91984828    -0.15900
F2766       F  0.70639080  0.26039491  0.94580961    -0.14500
F2767       F  0.64773636  0.27533367  0.93176153    -0.14500
F2768       F  0.64027222  0.32279296  0.98732307    -0.15900
C2769       C  0.98488451  0.28337542  0.94356043     0.14200
C2770       C  0.96505242  0.30243197  0.94870444     0.01100
C2771       C  0.96948643  0.31497426  0.96261150     0.16100
C2772       C  0.99192304  0.30665512  0.97182832     0.25500
C2773       C  0.01038613  0.28572775  0.96725431    -0.40800
C2774       C  0.00753791  0.27523430  0.95270957     0.32500
C2775       C  0.93868794  0.30751315  0.94013166     0.01200
F2776       F  0.95078989  0.33362388  0.96779085    -0.13100
F2777       F  0.52835829  0.25578884  0.94776214    -0.13700
C2778       C  0.91967030  0.28567854  0.93756168     0.16100
C2779       C  0.89509562  0.29008730  0.92912076     0.25500
C2780       C  0.88907089  0.31643376  0.92322042    -0.40800
C2781       C  0.90765870  0.33844893  0.92617264     0.32500
C2782       C  0.93225977  0.33403134  0.93458473     0.14200
F2783       F  0.92499443  0.26005400  0.94322011    -0.13100
F2784       F  0.90236451  0.36403858  0.92045523    -0.13700
F2785       F  0.87770420  0.26846512  0.92621649    -0.15900
F2786       F  0.95030017  0.35540407  0.93688174    -0.14500
F2787       F  0.98145102  0.27159765  0.92995773    -0.14500
F2788       F  0.99430575  0.31750071  0.98573206    -0.15900
C2789       C  0.69196035  0.20084652  0.95907487     0.14200
C2790       C  0.68332365  0.19687198  0.94418983     0.01100
C2791       C  0.65447765  0.19608129  0.94073477     0.16100
C2792       C  0.63452787  0.20012590  0.95190417     0.25500
C2793       C  0.64311138  0.20531672  0.96677333    -0.40800
C2794       C  0.67213453  0.20513391  0.97024382     0.32500
C2795       C  0.70452693  0.19416881  0.93227598     0.01200
F2796       F  0.64563272  0.19154472  0.92648040    -0.13100
F2797       F  0.68153483  0.20976753  0.98439112    -0.13700
C2798       C  0.72401012  0.17241295  0.93283795     0.16100
C2799       C  0.74458419  0.17027654  0.92187183     0.25500
C2800       C  0.74613324  0.18996217  0.91026206    -0.40800
C2801       C  0.72666594  0.21167470  0.90960641     0.32500
C2802       C  0.70584664  0.21366318  0.92048644     0.14200
F2803       F  0.72266214  0.15288449  0.94383164    -0.13100
F2804       F  0.72788764  0.23087705  0.89843573    -0.13700
F2805       F  0.76268688  0.14865068  0.92235465    -0.15900
F2806       F  0.68717878  0.23477478  0.91960636    -0.14500
F2807       F  0.71975136  0.20172079  0.96269768    -0.14500
F2808       F  0.60687932  0.20000569  0.94797617    -0.15900
C2809       C  0.98112190  0.18607250  0.94405128     0.14200
C2810       C  0.95197298  0.18424241  0.94631059     0.01100
C2811       C  0.94157007  0.18636258  0.96088391     0.16100
C2812       C  0.95973783  0.19149509  0.97290247     0.25500
C2813       C  0.98882170  0.19529816  0.97059111    -0.40800
C2814       C  0.99939851  0.19164206  0.95604610     0.32500
C2815       C  0.93202449  0.18222221  0.93350625     0.01200
F2816       F  0.91347164  0.18518999  0.96338825    -0.13100
F2817       F  0.02721947  0.19477496  0.95320398    -0.13700
C2818       C  0.91130706  0.16139790  0.93324679     0.16100
C2819       C  0.89049174  0.16146544  0.92209390     0.25500
C2820       C  0.89032719  0.18209036  0.91093963    -0.40800
C2821       C  0.91140283  0.20240981  0.91088063     0.32500
C2822       C  0.93207869  0.20253959  0.92210392     0.14200
F2823       F  0.91129608  0.14098287  0.94379285    -0.13100
F2824       F  0.91169657  0.22225730  0.90002557    -0.13700
F2825       F  0.87058560  0.14128812  0.92206832    -0.15900
F2826       F  0.95162966  0.22301032  0.92208643    -0.14500
F2827       F  0.99183198  0.18319189  0.93013567    -0.14500
F2828       F  0.94844783  0.19404147  0.98670368    -0.15900
C2829       C  0.93320946  0.39877103  0.16961953     0.14200
C2830       C  0.93624354  0.38705158  0.18397960     0.01100
C2831       C  0.91761131  0.36610160  0.18861665     0.16100
C2832       C  0.89562253  0.35764099  0.17920970     0.25500
C2833       C  0.89191946  0.37013098  0.16508894    -0.40800
C2834       C  0.91116757  0.39039563  0.16024332     0.32500
C2835       C  0.95611433  0.39937290  0.19482026     0.01200
F2836       F  0.92045506  0.35429684  0.20239897    -0.13100
F2837       F  0.90821280  0.40241948  0.14651900    -0.13700
C2838       C  0.94528955  0.41305122  0.20722207     0.16100
C2839       C  0.96318494  0.42673725  0.21708383     0.25500
C2840       C  0.99236816  0.42711346  0.21472991    -0.40800
C2841       C  0.00343223  0.41285977  0.20250604     0.32500
C2842       C  0.98533915  0.39911346  0.19254783     0.14200
F2843       F  0.91712430  0.41393796  0.20950698    -0.13100
F2844       F  0.03149443  0.41321003  0.19986294    -0.13700
F2845       F  0.95184085  0.43959418  0.22900435    -0.15900
F2846       F  0.99623181  0.38578635  0.18066156    -0.14500
F2847       F  0.95075457  0.41926312  0.16497883    -0.14500
F2848       F  0.87791404  0.33731214  0.18385314    -0.15900
C2849       C  0.69887659  0.39463671  0.16998340     0.14200
C2850       C  0.70045493  0.38855848  0.18537784     0.01100
C2851       C  0.72291408  0.37238506  0.19085080     0.16100
C2852       C  0.74383703  0.36316357  0.18113888     0.25500
C2853       C  0.74315187  0.37065940  0.16585628    -0.40800
C2854       C  0.72028122  0.38644577  0.16040977     0.32500
C2855       C  0.68074826  0.40218947  0.19577439     0.01200
F2856       F  0.72522943  0.36649454  0.20569405    -0.13100
F2857       F  0.71889453  0.39445529  0.14581180    -0.13700
C2858       C  0.66338876  0.38701890  0.20557785     0.16100
C2859       C  0.64562969  0.40076771  0.21554145     0.25500
C2860       C  0.64525667  0.42985721  0.21593470    -0.40800
C2861       C  0.66197604  0.44479172  0.20573353     0.32500
C2862       C  0.67965347  0.43115838  0.19592934     0.14200
F2863       F  0.66367272  0.35898064  0.20551909    -0.13100
F2864       F  0.66115972  0.47279308  0.20509166    -0.13700
F2865       F  0.62956634  0.38567281  0.22509725    -0.15900
F2866       F  0.69642924  0.44641962  0.18679414    -0.14500
F2867       F  0.67679268  0.40918797  0.16427656    -0.14500
F2868       F  0.76502112  0.34724091  0.18670243    -0.15900
C2869       C  0.97880629  0.10358243  0.18651304     0.14200
C2870       C  0.94946636  0.10303142  0.18849918     0.01100
C2871       C  0.93868253  0.09262006  0.20201912     0.16100
C2872       C  0.95671954  0.08170265  0.21301921     0.25500
C2873       C  0.98595360  0.08111374  0.21077107    -0.40800
C2874       C  0.99693792  0.09290813  0.19763483     0.32500
C2875       C  0.92988996  0.11157812  0.17622283     0.01200
F2876       F  0.91051030  0.09188963  0.20431126    -0.13100
F2877       F  0.52434579  0.10377867  0.19751293    -0.13700
C2878       C  0.92949398  0.09716401  0.16265007     0.16100
C2879       C  0.90940232  0.10338151  0.15154613     0.25500
C2880       C  0.88942726  0.12428612  0.15374163    -0.40800
C2881       C  0.89022516  0.13913044  0.16718826     0.32500
C2882       C  0.91017901  0.13274020  0.17835568     0.14200
F2883       F  0.94777592  0.07615685  0.16043326    -0.13100
F2884       F  0.87137279  0.15956495  0.16956974    -0.13700
F2885       F  0.90880870  0.08833057  0.13882691    -0.15900
F2886       F  0.91012503  0.14704079  0.19133266    -0.14500
F2887       F  0.98983241  0.11402460  0.17368814    -0.14500
F2888       F  0.94551497  0.07154323  0.22587217    -0.15900
C2889       C  0.66077953  0.11470246  0.19110489     0.14200
C2890       C  0.68160399  0.09697775  0.18562289     0.01100
C2891       C  0.68468824  0.07059002  0.19200675     0.16100
C2892       C  0.66742190  0.06201970  0.20363126     0.25500
C2893       C  0.64625547  0.07940734  0.20910242    -0.40800
C2894       C  0.64314996  0.10595987  0.20274583     0.32500
C2895       C  0.70123764  0.10607854  0.17380337     0.01200
F2896       F  0.70524444  0.05334930  0.18736703    -0.13100
F2897       F  0.62396305  0.12385250  0.20813622    -0.13700
C2898       C  0.71837441  0.12946738  0.17594122     0.16100
C2899       C  0.73878045  0.13657271  0.16543266     0.25500
C2900       C  0.74243323  0.12030694  0.15272581    -0.40800
C2901       C  0.72522166  0.09709282  0.15047355     0.32500
C2902       C  0.70467400  0.09007443  0.16089959     0.14200
F2903       F  0.71612772  0.14476124  0.18850060    -0.13100
F2904       F  0.72873480  0.08099518  0.13829477    -0.13700
F2905       F  0.75527625  0.15910321  0.16771623    -0.15900
F2906       F  0.68833743  0.06745325  0.15849753    -0.14500
F2907       F  0.65762067  0.14050209  0.18522983    -0.14500
F2908       F  0.67199164  0.03669260  0.20973127    -0.15900
C2909       C  0.65148473  0.13356734  0.66338500     0.14200
C2910       C  0.66342595  0.13646084  0.67772263     0.01100
C2911       C  0.68258019  0.15800298  0.68043389     0.16100
C2912       C  0.68884291  0.17706080  0.66905158     0.25500
C2913       C  0.67550322  0.17511504  0.65496495    -0.40800
C2914       C  0.65704596  0.15298347  0.65218838     0.32500
C2915       C  0.65417940  0.11781993  0.68988104     0.01200
F2916       F  0.69419279  0.16127035  0.69424079    -0.13100
F2917       F  0.64357838  0.15072773  0.63878425    -0.13700
C2918       C  0.67324478  0.10015800  0.69732281     0.16100
C2919       C  0.66335079  0.07982789  0.70724591     0.25500
C2920       C  0.63431811  0.07688620  0.70961931    -0.40800
C2921       C  0.61553923  0.09561953  0.70282754     0.32500
C2922       C  0.62542523  0.11610528  0.69317439     0.14200
F2923       F  0.70112918  0.10150818  0.69429115    -0.13100
F2924       F  0.58746743  0.09375175  0.70532474    -0.13700
F2925       F  0.68186723  0.06184342  0.71363334    -0.15900
F2926       F  0.60678406  0.13379851  0.68662228    -0.14500
F2927       F  0.63381427  0.11219712  0.66035610    -0.14500
F2928       F  0.70710753  0.19801175  0.67190442    -0.15900
C2929       C  0.63762647  0.35317550  0.66536440     0.14200
C2930       C  0.65354545  0.35212953  0.67873815     0.01100
C2931       C  0.67705518  0.33462747  0.67963803     0.16100
C2932       C  0.68400292  0.31795021  0.66752616     0.25500
C2933       C  0.66729026  0.31815904  0.65443195    -0.40800
C2934       C  0.64425227  0.33613921  0.65339770     0.32500
C2935       C  0.64482070  0.36876880  0.69175061     0.01200
F2936       F  0.69250044  0.33273362  0.69246513    -0.13100
F2937       F  0.62746157  0.33633879  0.64101988    -0.13700
C2938       C  0.61713924  0.36659875  0.69702705     0.16100
C2939       C  0.60740818  0.38476833  0.70780056     0.25500
C2940       C  0.62524437  0.40513858  0.71372060    -0.40800
C2941       C  0.65349309  0.40618342  0.70928038     0.32500
C2942       C  0.66323307  0.38809743  0.69833487     0.14200
F2943       F  0.59926319  0.34725349  0.69145414    -0.13100
F2944       F  0.67102907  0.42599616  0.71465241    -0.13700
F2945       F  0.58023718  0.38291135  0.71223763    -0.15900
F2946       F  0.69011364  0.39059992  0.69353117    -0.14500
F2947       F  0.61530812  0.37046933  0.66397707    -0.14500
F2948       F  0.70644473  0.30077561  0.66875015    -0.15900
C2949       C  0.97052579  0.08892645  0.68202281     0.14200
C2950       C  0.95627282  0.11113834  0.68848278     0.01100
C2951       C  0.95727838  0.11418379  0.70411135     0.16100
C2952       C  0.97231449  0.09539584  0.71311985     0.25500
C2953       C  0.98676011  0.07334971  0.70665230    -0.40800
C2954       C  0.98577192  0.07029739  0.69100822     0.32500
C2955       C  0.94141160  0.13184476  0.67893357     0.01200
F2956       F  0.94446761  0.13594034  0.71060313    -0.13100
F2957       F  0.50186360  0.05389122  0.68389704    -0.13700
C2958       C  0.91270865  0.13747248  0.68106205     0.16100
C2959       C  0.89932975  0.15842411  0.67272584     0.25500
C2960       C  0.91434023  0.17362409  0.66195253    -0.40800
C2961       C  0.94270274  0.16737711  0.65947316     0.32500
C2962       C  0.95620700  0.14684816  0.66796665     0.14200
F2963       F  0.89763264  0.12248232  0.69111785    -0.13100
F2964       F  0.95740143  0.18157593  0.64893820    -0.13700
F2965       F  0.87177618  0.16388112  0.67512572    -0.15900
F2966       F  0.98397272  0.14214077  0.66576068    -0.14500
F2967       F  0.96943768  0.08511525  0.66699988    -0.14500
F2968       F  0.97376850  0.09943137  0.72811229    -0.15900
C2969       C  0.93824169  0.35638269  0.67063985     0.14200
C2970       C  0.93101284  0.35496198  0.68585743     0.01100
C2971       C  0.91040841  0.33582475  0.69046403     0.16100
C2972       C  0.89828753  0.31761472  0.68011305     0.25500
C2973       C  0.90690558  0.31802692  0.66508826    -0.40800
C2974       C  0.92681469  0.33772961  0.66045005     0.32500
C2975       C  0.94706396  0.37180253  0.69684480     0.01200
F2976       F  0.90307950  0.33379410  0.70507219    -0.13100
F2977       F  0.93615152  0.33808977  0.64614646    -0.13700
C2978       C  0.93364276  0.39004377  0.70660331     0.16100
C2979       C  0.94962251  0.40768804  0.71575989     0.25500
C2980       C  0.97923478  0.40745262  0.71518512    -0.40800
C2981       C  0.48893236  0.38690353  0.70826656     0.32500
C2982       C  0.97657125  0.37034019  0.69709030     0.14200
F2983       F  0.90516133  0.39173318  0.70675796    -0.13100
F2984       F  0.51606449  0.38042625  0.71158460    -0.13700
F2985       F  0.93610180  0.42583910  0.72461275    -0.15900
F2986       F  0.48675010  0.34835584  0.69208950    -0.14500
F2987       F  0.95713771  0.37542214  0.66571461    -0.14500
F2988       F  0.87897517  0.29881913  0.68484325    -0.15900
C2989       C  0.85688333  0.10791073  0.54666528     0.14200
C2990       C  0.84722244  0.10835794  0.56143901     0.01100
C2991       C  0.83197597  0.08573716  0.56703465     0.16100
C2992       C  0.82527810  0.06349659  0.55781025     0.25500
C2993       C  0.83346076  0.06358905  0.54265620    -0.40800
C2994       C  0.85010342  0.08574305  0.53733573     0.32500
C2995       C  0.85243404  0.13259993  0.57101162     0.01200
F2996       F  0.82300096  0.08550617  0.58140899    -0.13100
F2997       F  0.85876428  0.08666934  0.52291499    -0.13700
C2998       C  0.82987405  0.14912012  0.57557081     0.16100
C2999       C  0.83454208  0.17115547  0.58528998     0.25500
C3000       C  0.86173312  0.17671594  0.59071581    -0.40800
C3001       C  0.88433922  0.16039600  0.58605151     0.32500
C3002       C  0.87974407  0.13862622  0.57614544     0.14200
F3003       F  0.80330695  0.14368567  0.57071563    -0.13100
F3004       F  0.91069739  0.16515487  0.59142386    -0.13700
F3005       F  0.81245946  0.18656084  0.58980542    -0.15900
F3006       F  0.90174678  0.12278000  0.57197085    -0.14500
F3007       F  0.87173571  0.12960543  0.54106002    -0.14500
F3008       F  0.80952273  0.04258731  0.56359723    -0.15900
C3009       C  0.84701896  0.41607273  0.56538891     0.14200
C3010       C  0.85471415  0.39021075  0.55979786     0.01100
C3011       C  0.85629063  0.38684698  0.54425959     0.16100
C3012       C  0.84863100  0.40844524  0.53443513     0.25500
C3013       C  0.83873988  0.43383146  0.53997364    -0.40800
C3014       C  0.83907940  0.43766072  0.55560913     0.32500
C3015       C  0.85881842  0.36622907  0.57014715     0.01200
F3016       F  0.86422200  0.36220248  0.53859010    -0.13100
F3017       F  0.83058265  0.46192730  0.56150478    -0.13700
C3018       C  0.83696259  0.34694593  0.57221878     0.16100
C3019       C  0.83993948  0.32509840  0.58256826     0.25500
C3020       C  0.86496707  0.32196382  0.59093022    -0.40800
C3021       C  0.88714445  0.34081716  0.58852305     0.32500
C3022       C  0.88402442  0.36285915  0.57829023     0.14200
F3023       F  0.81249796  0.34962834  0.56438483    -0.13100
F3024       F  0.91184683  0.33779694  0.59610590    -0.13700
F3025       F  0.81821605  0.30723596  0.58462648    -0.15900
F3026       F  0.90561076  0.38089606  0.57629315    -0.14500
F3027       F  0.84578129  0.41995557  0.58038251    -0.14500
F3028       F  0.84920924  0.40374472  0.51950813    -0.15900
C3029       C  0.70765838  0.08474037  0.55024288     0.14200
C3030       C  0.70777387  0.11283372  0.54605064     0.01100
C3031       C  0.71700866  0.12051579  0.53173984     0.16100
C3032       C  0.72875095  0.10094924  0.52238744     0.25500
C3033       C  0.73146679  0.07323050  0.52719085    -0.40800
C3034       C  0.71928311  0.06498356  0.54081579     0.32500
C3035       C  0.70195514  0.13447374  0.55713494     0.01200
F3036       F  0.71648539  0.14741012  0.52724161    -0.13100
F3037       F  0.72126410  0.03841985  0.54574853    -0.13700
C3038       C  0.72308169  0.15384882  0.56066371     0.16100
C3039       C  0.71822252  0.17430016  0.57117026     0.25500
C3040       C  0.69224866  0.17570306  0.57835165    -0.40800
C3041       C  0.67114959  0.15625235  0.57501272     0.32500
C3042       C  0.67596443  0.13573530  0.56442513     0.14200
F3043       F  0.74870334  0.15256398  0.55414866    -0.13100
F3044       F  0.64598949  0.15719139  0.58201379    -0.13700
F3045       F  0.73905273  0.19248405  0.57459331    -0.15900
F3046       F  0.65524506  0.11733820  0.56115771    -0.14500
F3047       F  0.69876734  0.07678485  0.56402005    -0.14500
F3048       F  0.73941924  0.10962950  0.50909524    -0.15900
C3049       C  0.71803695  0.37430294  0.53076283     0.14200
C3050       C  0.70543587  0.38189603  0.54420294     0.01100
C3051       C  0.70402197  0.41001622  0.54785624     0.16100
C3052       C  0.71766443  0.42995216  0.53895238     0.25500
C3053       C  0.73296636  0.42192044  0.52629107    -0.40800
C3054       C  0.73164654  0.39402090  0.52188752     0.32500
C3055       C  0.69855319  0.36016200  0.55540464     0.01200
F3056       F  0.69146046  0.41788601  0.56068399    -0.13100
F3057       F  0.74496549  0.38536564  0.50943100    -0.13700
C3058       C  0.72055156  0.34428291  0.56162264     0.16100
C3059       C  0.71500708  0.32361346  0.57219950     0.25500
C3060       C  0.68738904  0.31846926  0.57681395    -0.40800
C3061       C  0.66522681  0.33412290  0.57058863     0.32500
C3062       C  0.67079079  0.35497644  0.55994967     0.14200
F3063       F  0.74758833  0.34923943  0.55762511    -0.13100
F3064       F  0.63834862  0.32918424  0.57484863    -0.13700
F3065       F  0.73668471  0.30884714  0.57817579    -0.15900
F3066       F  0.64919580  0.36987615  0.55400465    -0.14500
F3067       F  0.71880013  0.34733929  0.52675933    -0.14500
F3068       F  0.71783379  0.45664056  0.54345448    -0.15900
C3069       C  0.69195584  0.14954161  0.33972386     0.14200
C3070       C  0.66445802  0.14768312  0.33391991     0.01100
C3071       C  0.64317807  0.16432757  0.33981278     0.16100
C3072       C  0.64940335  0.18291743  0.35115636     0.25500
C3073       C  0.67691812  0.18506937  0.35678907    -0.40800
C3074       C  0.69816029  0.16817639  0.35114167     0.32500
C3075       C  0.65769981  0.12903163  0.32146408     0.01200
F3076       F  0.61632384  0.16247518  0.33458643    -0.13100
F3077       F  0.72483643  0.17002428  0.35659155    -0.13700
C3078       C  0.66053778  0.10025912  0.32313152     0.16100
C3079       C  0.65053192  0.08266211  0.31193731     0.25500
C3080       C  0.63702351  0.09368552  0.29918776    -0.40800
C3081       C  0.63580945  0.12255608  0.29716197     0.32500
C3082       C  0.64632402  0.14004164  0.30815692     0.14200
F3083       F  0.67145059  0.08920893  0.33594320    -0.13100
F3084       F  0.62419470  0.13396115  0.28460841    -0.13700
F3085       F  0.65230663  0.05489734  0.31400596    -0.15900
F3086       F  0.64475138  0.16783128  0.30601057    -0.14500
F3087       F  0.71283714  0.13389213  0.33404843    -0.14500
F3088       F  0.62861093  0.19888308  0.35669731    -0.15900
C3089       C  0.68638204  0.37236605  0.34749092     0.14200
C3090       C  0.66098886  0.37285791  0.33928787     0.01100
C3091       C  0.64233425  0.35029375  0.34054009     0.16100
C3092       C  0.64845517  0.32820401  0.35021879     0.25500
C3093       C  0.67359173  0.32793015  0.35857782    -0.40800
C3094       C  0.69276551  0.34993284  0.35694278     0.32500
C3095       C  0.65348337  0.39695887  0.32963575     0.01200
F3096       F  0.61803711  0.34971310  0.33243106    -0.13100
F3097       F  0.71722344  0.35006798  0.36491161    -0.13700
C3098       C  0.67137197  0.40593456  0.31807616     0.16100
C3099       C  0.66263949  0.42669656  0.30800347     0.25500
C3100       C  0.63579706  0.43835955  0.30925415    -0.40800
C3101       C  0.61859362  0.43044382  0.32121857     0.32500
C3102       C  0.62746334  0.41017740  0.33142974     0.14200
F3103       F  0.69642152  0.39330697  0.31591158    -0.13100
F3104       F  0.59263639  0.44166175  0.32265241    -0.13700
F3105       F  0.67936329  0.43368556  0.29633324    -0.15900
F3106       F  0.61020953  0.40281771  0.34282029    -0.14500
F3107       F  0.70447382  0.39408689  0.34680065    -0.14500
F3108       F  0.62946525  0.30738345  0.35177697    -0.15900
C3109       C  0.73921826  0.08139631  0.44705006     0.14200
C3110       C  0.72303496  0.10059041  0.45487157     0.01100
C3111       C  0.71492303  0.09419121  0.46958795     0.16100
C3112       C  0.72519617  0.07039169  0.47683622     0.25500
C3113       C  0.74444334  0.05305765  0.46962508    -0.40800
C3114       C  0.74988799  0.05792468  0.45433991     0.32500
C3115       C  0.71684758  0.12807643  0.44804303     0.01200
F3116       F  0.69886572  0.11204552  0.47735999    -0.13100
F3117       F  0.76697983  0.04087807  0.44663954    -0.13700
C3118       C  0.68909849  0.13778886  0.44655541     0.16100
C3119       C  0.68366115  0.16302174  0.43925313     0.25500
C3120       C  0.70580103  0.17859457  0.43309504    -0.40800
C3121       C  0.73356710  0.16952909  0.43515067     0.32500
C3122       C  0.73907642  0.14464867  0.44269747     0.14200
F3123       F  0.66718967  0.12217239  0.45141890    -0.13100
F3124       F  0.75523478  0.18418282  0.42922477    -0.13700
F3125       F  0.65666285  0.17144731  0.43730127    -0.15900
F3126       F  0.76617560  0.13640873  0.44452891    -0.14500
F3127       F  0.74590327  0.08612871  0.43250648    -0.14500
F3128       F  0.71793093  0.06557822  0.49125703    -0.15900
C3129       C  0.68455672  0.36387813  0.44850909     0.14200
C3130       C  0.71232502  0.37388290  0.44919451     0.01100
C3131       C  0.73415368  0.35793027  0.44330293     0.16100
C3132       C  0.72812924  0.33336386  0.43591220     0.25500
C3133       C  0.70025593  0.32414583  0.43448330    -0.40800
C3134       C  0.67857955  0.33899424  0.44128212     0.32500
C3135       C  0.71892329  0.40103624  0.45582207     0.01200
F3136       F  0.76129629  0.36653746  0.44440618    -0.13100
F3137       F  0.65145619  0.33052246  0.43981597    -0.13700
C3138       C  0.71341575  0.40596599  0.47093149     0.16100
C3139       C  0.72401605  0.42968020  0.47779887     0.25500
C3140       C  0.74141482  0.44821038  0.46982347    -0.40800
C3141       C  0.74429189  0.44465936  0.45429230     0.32500
C3142       C  0.73301350  0.42131964  0.44735278     0.14200
F3143       F  0.69971968  0.38676866  0.47934671    -0.13100
F3144       F  0.75938115  0.46294015  0.44596009    -0.13700
F3145       F  0.71894416  0.43324217  0.49252484    -0.15900
F3146       F  0.73711175  0.41776508  0.43248594    -0.14500
F3147       F  0.66311984  0.37895298  0.45406525    -0.14500
F3148       F  0.74932445  0.31926677  0.42942536    -0.15900
C3149       C  0.96841067  0.09669028  0.32046206     0.14200
C3150       C  0.98267429  0.12116350  0.32415017     0.01100
C3151       C  0.00708247  0.12856127  0.31645775     0.16100
C3152       C  0.50153724  0.11203144  0.30337696     0.25500
C3153       C  0.00300386  0.08726410  0.30129322    -0.40800
C3154       C  0.97851683  0.07976296  0.30913601     0.32500
C3155       C  0.97137984  0.14031206  0.33523001     0.01200
F3156       F  0.02082642  0.15247387  0.31962361    -0.13100
F3157       F  0.96394116  0.05650280  0.30575266    -0.13700
C3158       C  0.98776483  0.14790519  0.34771210     0.16100
C3159       C  0.97857385  0.16869818  0.35715327     0.25500
C3160       C  0.95299587  0.18209598  0.35417254    -0.40800
C3161       C  0.93633746  0.17415506  0.34191452     0.32500
C3162       C  0.94545756  0.15331726  0.33248978     0.14200
F3163       F  0.01274175  0.13532985  0.35062935    -0.13100
F3164       F  0.91128688  0.18664676  0.33911795    -0.13700
F3165       F  0.99459952  0.17593195  0.36915020    -0.15900
F3166       F  0.92950798  0.14649103  0.32039077    -0.14500
F3167       F  0.94466184  0.08926811  0.32781079    -0.14500
F3168       F  0.52459705  0.12201336  0.29627483    -0.15900
C3169       C  0.00765690  0.39580145  0.32527062     0.14200
C3170       C  0.97832238  0.39340075  0.32600020     0.01100
C3171       C  0.96142257  0.41117905  0.31722648     0.16100
C3172       C  0.97377426  0.43014034  0.30724916     0.25500
C3173       C  0.00321765  0.43147210  0.30593643    -0.40800
C3174       C  0.50452038  0.41232921  0.31576713     0.32500
C3175       C  0.96575359  0.37140648  0.33545821     0.01200
F3176       F  0.93298488  0.40984517  0.31818513    -0.13100
F3177       F  0.53301505  0.41264882  0.31675787    -0.13700
C3178       C  0.97007402  0.37138580  0.35100742     0.16100
C3179       C  0.96069865  0.34922578  0.35980587     0.25500
C3180       C  0.94615342  0.32690322  0.35327472    -0.40800
C3181       C  0.94147383  0.32717349  0.33769088     0.32500
C3182       C  0.95143476  0.34914098  0.32884917     0.14200
F3183       F  0.98358720  0.39281660  0.35765389    -0.13100
F3184       F  0.92749022  0.30606124  0.33102442    -0.13700
F3185       F  0.96603044  0.34944928  0.37475743    -0.15900
F3186       F  0.94790005  0.34830871  0.31376856    -0.14500
F3187       F  0.02444503  0.37894915  0.33367490    -0.14500
F3188       F  0.95694365  0.44617287  0.29842517    -0.15900
C3189       C  0.85625227  0.12408484  0.47048939     0.14200
C3190       C  0.86974672  0.11707882  0.45714621     0.01100
C3191       C  0.87400256  0.08909916  0.45387148     0.16100
C3192       C  0.86424924  0.06842802  0.46354336     0.25500
C3193       C  0.84958175  0.07536908  0.47656275    -0.40800
C3194       C  0.84610689  0.10341031  0.48008136     0.32500
C3195       C  0.87821266  0.13877925  0.44627471     0.01200
F3196       F  0.88612841  0.08172732  0.44083240    -0.13100
F3197       F  0.83231718  0.11081762  0.49263649    -0.13700
C3198       C  0.90616381  0.14053099  0.44135929     0.16100
C3199       C  0.91389118  0.16046742  0.43071465     0.25500
C3200       C  0.89378229  0.17895072  0.42485116    -0.40800
C3201       C  0.86585906  0.17718903  0.42973599     0.32500
C3202       C  0.85811010  0.15726565  0.44035756     0.14200
F3203       F  0.92603237  0.12314453  0.44703091    -0.13100
F3204       F  0.84607581  0.19469499  0.42408861    -0.13700
F3205       F  0.94102578  0.16190970  0.42619882    -0.15900
F3206       F  0.83082231  0.15560536  0.44460844    -0.14500
F3207       F  0.85245443  0.15098020  0.47409216    -0.14500
F3208       F  0.86734278  0.04163414  0.45954988    -0.15900
C3209       C  0.87304545  0.41157134  0.45181373     0.14200
C3210       C  0.86810889  0.38367432  0.45537678     0.01100
C3211       C  0.85413715  0.37670929  0.46864131     0.16100
C3212       C  0.84405727  0.39740825  0.47790153     0.25500
C3213       C  0.84793680  0.42547671  0.47407760    -0.40800
C3214       C  0.86307013  0.43235308  0.46108414     0.32500
C3215       C  0.87548887  0.36202993  0.44463877     0.01200
F3216       F  0.84957884  0.34981230  0.47239580    -0.13100
F3217       F  0.86636238  0.45911483  0.45671004    -0.13700
C3218       C  0.90366490  0.35749387  0.44083732     0.16100
C3219       C  0.91031983  0.33777286  0.43015690     0.25500
C3220       C  0.88887834  0.32240110  0.42321851    -0.40800
C3221       C  0.86076507  0.32679583  0.42704248     0.32500
C3222       C  0.85408272  0.34650801  0.43770137     0.14200
F3223       F  0.92465589  0.37191693  0.44761435    -0.13100
F3224       F  0.83988326  0.31206995  0.42036609    -0.13700
F3225       F  0.93764997  0.33339918  0.42666505    -0.15900
F3226       F  0.82668985  0.35086514  0.44105929    -0.14500
F3227       F  0.88596679  0.41869083  0.43884756    -0.14500
F3228       F  0.82968736  0.38995193  0.49036163    -0.15900
N3229       N  0.91505452  0.75540844  0.41193275    -0.35100
N3230       N  0.93131365  0.71296284  0.39137786    -0.55700
N3231       N  0.94452460  0.75569565  0.36908662    -0.35100
N3232       N  0.93097142  0.79804913  0.39042433    -0.55700
C3233       C  0.91500866  0.73309889  0.42116589     0.28500
C3234       C  0.91457973  0.77801874  0.42062123     0.28500
C3235       C  0.95595153  0.73305714  0.36284538     0.28500
C3236       C  0.95636557  0.77819701  0.36250486     0.28500
C3237       C  0.91839636  0.69707037  0.40180158     0.37100
C3238       C  0.93364923  0.69725298  0.37907187     0.37100
C3239       C  0.91772708  0.81377727  0.40052414     0.37100
C3240       C  0.93418582  0.81403417  0.37807645     0.37100
C3241       C  0.91453494  0.74161328  0.43591415    -0.20400
C3242       C  0.91423711  0.77003149  0.43557230    -0.20400
C3243       C  0.97523828  0.74125262  0.35212353    -0.20400
C3244       C  0.97553180  0.76973049  0.35192684    -0.20400
C3245       C  0.91274904  0.67109044  0.39616849    -0.21500
C3246       C  0.92226537  0.67124475  0.38172589    -0.21500
C3247       C  0.91265800  0.83991114  0.39463561    -0.21500
C3248       C  0.92300223  0.84005016  0.38037247    -0.21500
C3249       C  0.91273680  0.70540671  0.41654258    -0.16800
C3250       C  0.91198360  0.80547981  0.41534437    -0.16800
C3251       C  0.94906062  0.80606577  0.36523857    -0.16800
C3252       C  0.94810470  0.70530120  0.36597256    -0.16800
H3253       H  0.91382998  0.72868544  0.44586502     0.16100
H3254       H  0.91327054  0.78328989  0.44521915     0.16100
H3255       H  0.98768577  0.72808333  0.34509548     0.16100
H3256       H  0.98824581  0.78271028  0.34472291     0.16100
H3257       H  0.90284894  0.65383689  0.40186980     0.14400
H3258       H  0.92121022  0.65404567  0.37411145     0.14400
H3259       H  0.90281118  0.85715446  0.40010010     0.14400
H3260       H  0.92261028  0.85743053  0.37265022     0.14400
H3261       H  0.91166823  0.75523911  0.40042828     0.27600
H3262       H  0.92731717  0.75570215  0.37617545     0.27600
N3263       N  0.67895878  0.75951191  0.37313714    -0.35100
N3264       N  0.68251010  0.79970315  0.39673802    -0.55700
N3265       N  0.69319941  0.75525183  0.41859625    -0.35100
N3266       N  0.68606147  0.71487146  0.39523411    -0.55700
C3267       C  0.66953958  0.78237225  0.36582108     0.28500
C3268       C  0.67070565  0.73743240  0.36505635     0.28500
C3269       C  0.68963378  0.77683910  0.42784585     0.28500
C3270       C  0.69189177  0.73185746  0.42702090     0.28500
C3271       C  0.68305804  0.81705185  0.38477117     0.37100
C3272       C  0.69042162  0.81482725  0.40866436     0.37100
C3273       C  0.68727049  0.70019686  0.38248312     0.37100
C3274       C  0.69519573  0.69792127  0.40639038     0.37100
C3275       C  0.65540543  0.77477997  0.35286950    -0.20400
C3276       C  0.65602815  0.74639491  0.35241325    -0.20400
C3277       C  0.68631655  0.76709692  0.44237418    -0.20400
C3278       C  0.68775502  0.73869159  0.44185414    -0.20400
C3279       C  0.69101912  0.84331703  0.38909251    -0.21500
C3280       C  0.69585416  0.84190445  0.40421151    -0.21500
C3281       C  0.69708922  0.67378536  0.38555104    -0.21500
C3282       C  0.70212680  0.67234309  0.40068718    -0.21500
C3283       C  0.67464143  0.80991610  0.37015970    -0.16800
C3284       C  0.67752172  0.70955390  0.36831259    -0.16800
C3285       C  0.69580141  0.70465798  0.42176594    -0.16800
C3286       C  0.69123237  0.80509167  0.42365806    -0.16800
H3287       H  0.64571841  0.78828940  0.34458808     0.16100
H3288       H  0.64691357  0.73380618  0.34367629     0.16100
H3289       H  0.68347253  0.77921936  0.45233964     0.16100
H3290       H  0.68616493  0.72468403  0.45133511     0.16100
H3291       H  0.69300504  0.86160532  0.38209584     0.14400
H3292       H  0.70246841  0.85899298  0.41112395     0.14400
H3293       H  0.70001802  0.65717954  0.37772042     0.14400
H3294       H  0.70978070  0.65441416  0.40680143     0.14400
H3295       H  0.69291634  0.75911248  0.38215637     0.27600
H3296       H  0.69939230  0.75663118  0.40751828     0.27600
O3297       O  0.81256952  0.94017480  0.49036163    -0.78700
O3298       O  0.82493473  0.54628128  0.51638897    -0.78700
O3299       O  0.84234621  0.52999696  0.48230205    -0.78700
O3300       O  0.80518827  0.97013432  0.53628137    -0.78600
O3301       O  0.81154255  0.56046949  0.48954070    -0.78800
O3302       O  0.82553918  0.95193743  0.51756458    -0.78700
O3303       O  0.80511614  0.52689143  0.53515323    -0.78700
O3304       O  0.84363650  0.97191945  0.48489441    -0.78700
C3305       C  0.83598821  0.94694194  0.48471144     1.11000
C3306       C  0.82231677  0.54435101  0.53021595     1.10900
C3307       C  0.83447256  0.55497798  0.48313636     1.11100
C3308       C  0.82309368  0.95354451  0.53138538     1.10900
O3309       O  0.77410131  0.92975676  0.51241178    -0.78700
O3310       O  0.75835348  0.53066174  0.49105179    -0.78700
O3311       O  0.78661039  0.97200078  0.47327380    -0.78700
O3312       O  0.75203789  0.52942528  0.51984537    -0.78600
O3313       O  0.77346459  0.56765622  0.51162460    -0.78700
O3314       O  0.75945785  0.96995762  0.49256356    -0.78700
O3315       O  0.75192846  0.96662493  0.52090260    -0.78600
O3316       O  0.78552056  0.52985243  0.47187427    -0.78700
Co3317     Co  0.79222022  0.96215066  0.50573178     1.51500
Co3318     Co  0.79154388  0.53661739  0.50447540     1.51700
Co3319     Co  0.81298160  0.50120286  0.47894271     1.51600
Co3320     Co  0.78208342  0.49888881  0.52421846     1.51500
O3321       O  0.80507644  0.49992916  0.50210300    -1.40600
C3322       C  0.75415507  0.93996584  0.51979916     1.11000
C3323       C  0.76276798  0.53746296  0.47765869     1.11100
C3324       C  0.76335767  0.96502229  0.47899566     1.11000
C3325       C  0.75352613  0.55624405  0.51866568     1.11000
N3326       N  0.87362642  0.74676671  0.60529764    -0.35100
N3327       N  0.88761734  0.70366096  0.62695485    -0.55700
N3328       N  0.90142705  0.74510071  0.64906329    -0.35100
N3329       N  0.88917560  0.78820990  0.62697957    -0.55700
C3330       C  0.87382885  0.72449788  0.59629901     0.28500
C3331       C  0.87407112  0.76953877  0.59638153     0.28500
C3332       C  0.91250494  0.72226355  0.65565251     0.28500
C3333       C  0.91379522  0.76715935  0.65557203     0.28500
C3334       C  0.87664274  0.68776051  0.61603625     0.37100
C3335       C  0.89128124  0.68696045  0.63901163     0.37100
C3336       C  0.87826302  0.80500562  0.61624889     0.37100
C3337       C  0.89387651  0.80409605  0.63907344     0.37100
C3338       C  0.87397406  0.73322375  0.58146623    -0.20400
C3339       C  0.87409446  0.76165196  0.58151900    -0.20400
C3340       C  0.93163431  0.72988333  0.66667923    -0.20400
C3341       C  0.93253602  0.75821611  0.66658987    -0.20400
C3342       C  0.87336144  0.66080766  0.62119281    -0.21500
C3343       C  0.88264447  0.66031812  0.63577005    -0.21500
C3344       C  0.87604755  0.83170570  0.62156351    -0.21500
C3345       C  0.88589143  0.83110611  0.63604454    -0.21500
C3346       C  0.87210361  0.69660000  0.60110211    -0.16800
C3347       C  0.87293786  0.79717683  0.60130655    -0.16800
C3348       C  0.90799638  0.79517566  0.65221318    -0.16800
C3349       C  0.90535968  0.69471051  0.65225473    -0.16800
H3350       H  0.87368343  0.72046406  0.57160519     0.16100
H3351       H  0.87395925  0.77496486  0.57170995     0.16100
H3352       H  0.94386097  0.71644114  0.67397427     0.16100
H3353       H  0.94563002  0.77077530  0.67380394     0.16100
H3354       H  0.86581733  0.64315113  0.61499243     0.14400
H3355       H  0.88370596  0.64226810  0.64301358     0.14400
H3356       H  0.86882454  0.84988805  0.61552505     0.14400
H3357       H  0.88768992  0.84868762  0.64336856     0.14400
H3358       H  0.87013135  0.74645218  0.61674644     0.27600
H3359       H  0.88455570  0.74562791  0.64157206     0.27600
N3360       N  0.68251112  0.74158323  0.63954791    -0.35100
N3361       N  0.68923042  0.70151108  0.61629141    -0.55700
N3362       N  0.69214990  0.74597070  0.59421748    -0.35100
N3363       N  0.68272987  0.78615067  0.61718164    -0.55700
C3364       C  0.67515269  0.71799814  0.64682894     0.28500
C3365       C  0.67180031  0.76278656  0.64734914     0.28500
C3366       C  0.68984624  0.72390416  0.58517701     0.28500
C3367       C  0.68738461  0.76872736  0.58567614     0.28500
C3368       C  0.69206548  0.68453945  0.62827537     0.37100
C3369       C  0.69722694  0.68685074  0.60436062     0.37100
C3370       C  0.68329928  0.80127398  0.62977342     0.37100
C3371       C  0.68915282  0.80362518  0.60581552     0.37100
C3372       C  0.65979735  0.72433127  0.65942356    -0.20400
C3373       C  0.65771233  0.75258898  0.65976436    -0.20400
C3374       C  0.68373109  0.73272593  0.57068682    -0.20400
C3375       C  0.68226262  0.76107325  0.57099676    -0.20400
C3376       C  0.70197083  0.65897955  0.62397603    -0.21500
C3377       C  0.70519962  0.66041864  0.60876593    -0.21500
C3378       C  0.68983640  0.82855528  0.62639513    -0.21500
C3379       C  0.69357791  0.83004380  0.61118405    -0.21500
C3380       C  0.68278248  0.69095685  0.64270310    -0.16800
C3381       C  0.67568006  0.79115766  0.64404361    -0.16800
C3382       C  0.68958782  0.79625993  0.59058678    -0.16800
C3383       C  0.69514765  0.69623712  0.58943579    -0.16800
H3384       H  0.65095673  0.71008921  0.66753936     0.16100
H3385       H  0.64700176  0.76429432  0.66821640     0.16100
H3386       H  0.68108897  0.72008627  0.56085823     0.16100
H3387       H  0.67820874  0.77453978  0.56147184     0.16100
H3388       H  0.70574660  0.64098904  0.63100517     0.14400
H3389       H  0.71205660  0.64374818  0.60172411     0.14400
H3390       H  0.69138985  0.84564475  0.63406308     0.14400
H3391       H  0.69863914  0.84849775  0.60479651     0.14400
H3392       H  0.69651863  0.74332449  0.63073394     0.27600
H3393       H  0.69999995  0.74572490  0.60509050     0.27600
C3394       C  0.50528777  0.57013691  0.28907566     0.43900
N3395       N  0.53071932  0.55696700  0.27078565     0.02800
C3396       C  0.53412568  0.94370807  0.22555480    -0.05000
H3397       H  0.54902020  0.92234637  0.28367637     0.08300
C3398       C  0.63412018  0.97550326  0.28440186    -0.05400
Co3399     Co  0.51430545  0.00722041  0.25448854     0.74200
N3400       N  0.53770596  0.95779846  0.27023282    -0.24600
Co3401     Co  0.56893957  0.95981301  0.25420287     0.74100
C3402       C  0.62501325  0.94808230  0.28969025     0.44000
N3403       N  0.61303158  0.54339997  0.27296506     0.02400
N3404       N  0.59912794  0.96061434  0.27109797     0.02500
N3405       N  0.00277858  0.97222187  0.23004533    -0.45400
H3406       H  0.98492495  0.52956733  0.28782967     0.08300
N3407       N  0.51694539  0.97576296  0.27081845     0.02800
N3408       N  0.60112174  0.96339153  0.23859886     0.02600
C3409       C  0.63070506  0.95650748  0.22100559     0.44200
N3410       N  0.59251413  0.56132432  0.27070264    -0.24000
C3411       C  0.99520164  0.53138962  0.22906123    -0.05000
N3412       N  0.52701770  0.57731724  0.28027244    -0.45100
N3413       N  0.60703884  0.94653603  0.22745308    -0.45400
C3414       C  0.50029970  0.55430772  0.22011008     0.44000
N3415       N  0.51708363  0.97766486  0.23803377     0.02800
N3416       N  0.59330742  0.55369612  0.23846440    -0.24100
N3417       N  0.51274798  0.53643409  0.27276693    -0.24500
N3418       N  0.61443215  0.53642861  0.24052589     0.02500
H3419       H  0.58457346  0.58494366  0.22176046     0.08400
H3420       H  0.65791591  0.99345471  0.22862715     0.08400
N3421       N  0.53797127  0.95986903  0.23754047    -0.24600
N3422       N  0.61680993  0.98145541  0.27276788    -0.24200
N3423       N  0.52984352  0.54987837  0.23836644     0.02800
C3424       C  0.51052168  0.94841648  0.28959162     0.44200
C3425       C  0.59630598  0.58277600  0.27978725    -0.05500
N3426       N  0.61978691  0.98341040  0.24006397    -0.24200
H3427       H  0.65197033  0.98777448  0.28795368     0.08400
N3428       N  0.00890108  0.96936013  0.28367166    -0.45400
H3429       H  0.58316628  0.60093936  0.28015708     0.08400
C3430       C  0.62504413  0.55854377  0.22032364     0.44100
C3431       C  0.00146499  0.54281398  0.28361121    -0.05000
Co3432     Co  0.56152367  0.55603816  0.25439973     0.73800
N3433       N  0.63125983  0.55165639  0.28337964    -0.45100
C3434       C  0.50834727  0.95414735  0.21839564     0.44300
N3435       N  0.52378814  0.56534910  0.22639975    -0.45100
Co3436     Co  0.61618157  0.50932417  0.25880465     0.73900
C3437       C  0.63927669  0.98076441  0.22952442    -0.05500
C3438       C  0.53538840  0.93982540  0.28158737    -0.05000
N3439       N  0.51140330  0.52984335  0.24042616    -0.24600
N3440       N  0.60338549  0.94037794  0.28087478    -0.45300
H3441       H  0.54776643  0.92705949  0.22228422     0.08300
C3442       C  0.59809804  0.56870351  0.22599558    -0.05400
Cl3443     Cl  0.56573164  0.01031547  0.25485842    -0.48400
C3444       C  0.62185911  0.57637912  0.28816625     0.44100
H3445       H  0.97713998  0.51780112  0.22879965     0.08300
N3446       N  0.63365444  0.53864277  0.23000281    -0.52600
O3447       O  0.49759184  0.72519594  0.99314952    -0.78700
O3448       O  0.59634847  0.71081529  0.01120820    -0.78700
O3449       O  0.59513416  0.71133573  0.97461161    -0.78700
O3450       O  0.53717089  0.73622278  0.03505581    -0.78600
O3451       O  0.63063433  0.72735761  0.98837778    -0.78800
O3452       O  0.53398065  0.71146260  0.01499265    -0.78700
O3453       O  0.59486815  0.73292125  0.03251534    -0.78700
O3454       O  0.53520948  0.71481016  0.97961795    -0.78700
C3455       C  0.50819616  0.71355828  0.98188369     1.11000
C3456       C  0.60201078  0.71197549  0.02504770     1.10900
C3457       C  0.62185971  0.71335157  0.97710960     1.11100
C3458       C  0.52841051  0.71475704  0.02860018     1.10900
O3459       O  0.50554514  0.76462350  0.01597852    -0.78700
O3460       O  0.60910959  0.77984587  0.98852568    -0.78700
O3461       O  0.55176376  0.75872894  0.97226159    -0.78700
O3462       O  0.59669120  0.79025328  0.02450027    -0.78600
O3463       O  0.62702806  0.76155910  0.01478005    -0.78700
O3464       O  0.52046539  0.77436753  0.98788418    -0.78700
O3465       O  0.53799957  0.79189586  0.02617801    -0.78600
O3466       O  0.58121442  0.76244185  0.97220004    -0.78700
Co3467     Co  0.52856837  0.74366072  0.00142101     1.51500
Co3468     Co  0.60068239  0.74550996  0.99950565     1.51700
Co3469     Co  0.57179764  0.73371351  0.98824183     1.51600
Co3470     Co  0.56677387  0.76276190  0.02830223     1.51500
O3471       O  0.56354846  0.75948440  0.00581321    -1.40600
C3472       C  0.51235722  0.78609639  0.02338335     1.11000
C3473       C  0.60110376  0.77928989  0.97519033     1.11100
C3474       C  0.52967807  0.77351228  0.97478499     1.11000
C3475       C  0.62184138  0.78252871  0.02275324     1.11000
N3476       N  0.76860527  0.82973587  0.88130438    -0.35100
N3477       N  0.81294019  0.81348749  0.90257842    -0.55700
N3478       N  0.85356434  0.82989612  0.88026307    -0.35100
N3479       N  0.80959676  0.84326572  0.85865208    -0.55700
C3480       C  0.75340507  0.81743960  0.89223004     0.28500
C3481       C  0.75158883  0.83231656  0.86910860     0.28500
C3482       C  0.87018001  0.81666528  0.89037018     0.28500
C3483       C  0.86849727  0.83241466  0.86754126     0.28500
C3484       C  0.79080239  0.81296222  0.91193948     0.37100
C3485       C  0.83644195  0.81281592  0.91125067     0.37100
C3486       C  0.78635341  0.85242280  0.85138310     0.37100
C3487       C  0.83185281  0.85355092  0.85113651     0.37100
C3488       C  0.72643636  0.81208748  0.88688941    -0.20400
C3489       C  0.72528664  0.82151909  0.87232956    -0.20400
C3490       C  0.89572583  0.81035499  0.88392998    -0.20400
C3491       C  0.89475435  0.82048932  0.86956153    -0.20400
C3492       C  0.80028949  0.81125899  0.92664760    -0.21500
C3493       C  0.82924022  0.81115446  0.92620346    -0.21500
C3494       C  0.79387136  0.86808380  0.83895522    -0.21500
C3495       C  0.82277146  0.86884596  0.83882063    -0.21500
C3496       C  0.76221325  0.81343854  0.90730971    -0.16800
C3497       C  0.75850410  0.84585200  0.85550205    -0.16800
C3498       C  0.86017757  0.84772587  0.85475237    -0.16800
C3499       C  0.86419796  0.81290260  0.90568546    -0.16800
H3500       H  0.70916791  0.80282547  0.89296628     0.16100
H3501       H  0.70700960  0.82089658  0.86502183     0.16100
H3502       H  0.91358881  0.80025104  0.88919647     0.16100
H3503       H  0.91178430  0.81968767  0.86165991     0.16100
H3504       H  0.78770523  0.81031886  0.93665623     0.14400
H3505       H  0.84333773  0.81008648  0.93577282     0.14400
H3506       H  0.78000771  0.87786355  0.83082147     0.14400
H3507       H  0.83560627  0.87912996  0.83050834     0.14400
H3508       H  0.78808094  0.83910189  0.88277707     0.27600
H3509       H  0.83509684  0.84034062  0.88259812     0.27600
N3510       N  0.81568413  0.67986017  0.89392850    -0.35100
N3511       N  0.77211376  0.67155870  0.87121919    -0.55700
N3512       N  0.81599893  0.66246875  0.84967226    -0.35100
N3513       N  0.85954970  0.67379802  0.87191809    -0.55700
C3514       C  0.79269916  0.68869992  0.90119744     0.28500
C3515       C  0.83846877  0.68874545  0.90168527     0.28500
C3516       C  0.79314661  0.66161803  0.84059554     0.28500
C3517       C  0.83885180  0.66386223  0.84085998     0.28500
C3518       C  0.75609336  0.67111935  0.88360646     0.37100
C3519       C  0.75642970  0.66011090  0.86020856     0.37100
C3520       C  0.87514559  0.67192105  0.88459901     0.37100
C3521       C  0.87541792  0.66313991  0.86097603     0.37100
C3522       C  0.80096991  0.70357779  0.91368004    -0.20400
C3523       C  0.82991383  0.70356914  0.91399583    -0.20400
C3524       C  0.80151653  0.66281367  0.82579082    -0.20400
C3525       C  0.83042557  0.66432671  0.82595762    -0.20400
C3526       C  0.72981754  0.66009843  0.88035649    -0.21500
C3527       C  0.73003836  0.65309234  0.86551834    -0.21500
C3528       C  0.90117829  0.66053669  0.88165112    -0.21500
C3529       C  0.90141436  0.65511580  0.86664886    -0.21500
C3530       C  0.76464880  0.68125436  0.89770102    -0.16800
C3531       C  0.86654937  0.68141468  0.89867931    -0.16800
C3532       C  0.86688565  0.66066168  0.84589394    -0.16800
C3533       C  0.76541784  0.65641136  0.84534769    -0.16800
H3534       H  0.78753292  0.71284735  0.92191866     0.16100
H3535       H  0.84314531  0.71281258  0.92250961     0.16100
H3536       H  0.78823984  0.66169996  0.81590668     0.16100
H3537       H  0.84377581  0.66446935  0.81622507     0.16100
H3538       H  0.71239637  0.65716880  0.88790963     0.14400
H3539       H  0.71278569  0.64379572  0.85936969     0.14400
H3540       H  0.91817462  0.65637222  0.88948946     0.14400
H3541       H  0.91861746  0.64592400  0.86065810     0.14400
H3542       H  0.81580770  0.66523458  0.88551767     0.27600
H3543       H  0.81620033  0.65771753  0.86100893     0.27600
C3544       C  0.49609067  0.93290044  0.72026878     0.43900
N3545       N  0.50814424  0.96667843  0.73422516     0.02800
C3546       C  0.62686740  0.54203461  0.73327308    -0.05000
H3547       H  0.64526656  0.93274432  0.74140827     0.08300
C3548       C  0.59258292  0.94495735  0.78985219    -0.05400
Co3549     Co  0.56208232  0.99209049  0.72399928     0.74200
N3550       N  0.61046525  0.96014017  0.73652139    -0.24600
Co3551     Co  0.61236320  0.99166174  0.75215082     0.74100
C3552       C  0.61771467  0.93003607  0.78501793     0.44000
N3553       N  0.52594711  0.96947587  0.77842040     0.02400
N3554       N  0.60862780  0.96310771  0.76947887     0.02500
N3555       N  0.59224216  0.54113723  0.71572923    -0.45400
H3556       H  0.53544621  0.93811743  0.70575053     0.08300
N3557       N  0.59070235  0.96004992  0.72607365     0.02800
N3558       N  0.60703889  0.52508870  0.76972502     0.02600
C3559       C  0.61966751  0.55887553  0.78365801     0.44200
N3560       N  0.50684437  0.96998350  0.76761866    -0.24000
C3561       C  0.52183943  0.54264632  0.71467110    -0.05000
N3562       N  0.99391568  0.94311879  0.73305656    -0.45100
N3563       N  0.62698388  0.54383410  0.77169342    -0.45400
C3564       C  0.49648806  0.55684422  0.71944380     0.44000
N3565       N  0.58844252  0.52185023  0.72611529     0.02800
N3566       N  0.50541291  0.52805767  0.76785246    -0.24100
N3567       N  0.52884062  0.96436261  0.72461799    -0.24500
N3568       N  0.52470355  0.52880092  0.77853095     0.02500
H3569       H  0.97371962  0.55274026  0.76179004     0.08400
H3570       H  0.58071396  0.55306649  0.79860916     0.08400
N3571       N  0.60823222  0.52200526  0.73656771    -0.24600
N3572       N  0.58862921  0.96497731  0.77951586    -0.24200
N3573       N  0.50606724  0.52440860  0.73506320     0.02800
C3574       C  0.61434382  0.92343336  0.72207243     0.44200
C3575       C  0.99211319  0.94699192  0.77211677    -0.05500
N3576       N  0.58697795  0.52671762  0.77973510    -0.24200
H3577       H  0.58070632  0.94271110  0.80003966     0.08400
N3578       N  0.59228625  0.93851314  0.71718201    -0.45400
H3579       H  0.97332548  0.94277881  0.76563356     0.08400
C3580       C  0.00338698  0.56452130  0.78130396     0.44100
C3581       C  0.52313205  0.94361046  0.71536527    -0.05000
Co3582     Co  0.50920344  0.99837868  0.74986323     0.73800
N3583       N  0.51942978  0.95211564  0.78941528    -0.45100
C3584       C  0.61593575  0.55485062  0.71952686     0.44300
N3585       N  0.99235053  0.54374334  0.73157348    -0.45100
Co3586     Co  0.55947548  0.99723972  0.77833236     0.73900
C3587       C  0.59297907  0.54752825  0.78899095    -0.05500
C3588       C  0.62687869  0.93793341  0.73474658    -0.05000
N3589       N  0.52615186  0.52297464  0.72506937    -0.24600
N3590       N  0.62630162  0.94270934  0.77235035    -0.45300
H3591       H  0.64568205  0.54684178  0.73963886     0.08300
C3592       C  0.99253632  0.54930143  0.76842947    -0.05400
Cl3593     Cl  0.56074709  0.99482946  0.75108985    -0.48400
C3594       C  0.00129981  0.93576386  0.78668250     0.44100
H3595       H  0.53426918  0.54587827  0.70473812     0.08300
N3596       N  0.52161715  0.55009186  0.78748959    -0.45200
N3597       N  0.81186302  0.64901738  0.09354699    -0.35100
N3598       N  0.76916722  0.64084118  0.11638010    -0.55700
N3599       N  0.81238556  0.62798164  0.13848035    -0.35100
N3600       N  0.85494747  0.63346787  0.11515332    -0.55700
C3601       C  0.78825558  0.64821958  0.08494991     0.28500
C3602       C  0.83410574  0.64538846  0.08441802     0.28500
C3603       C  0.78914144  0.61946846  0.14587063     0.28500
C3604       C  0.83480846  0.61591368  0.14528184     0.28500
C3605       C  0.75290364  0.65149466  0.10526306     0.37100
C3606       C  0.75324787  0.64037494  0.12882479     0.37100
C3607       C  0.87147163  0.64307780  0.10400303     0.37100
C3608       C  0.87161104  0.63141289  0.12745773     0.37100
C3609       C  0.79561137  0.64424461  0.07015619    -0.20400
C3610       C  0.82453775  0.64248809  0.06982351    -0.20400
C3611       C  0.79697276  0.60220806  0.15768112    -0.20400
C3612       C  0.82579777  0.59997499  0.15731053    -0.20400
C3613       C  0.72660606  0.65811272  0.11072037    -0.21500
C3614       C  0.72682475  0.65103130  0.12565342    -0.21500
C3615       C  0.89864811  0.64726276  0.10930747    -0.21500
C3616       C  0.89876745  0.63969007  0.12413092    -0.21500
C3617       C  0.76043532  0.65247393  0.08999175    -0.16800
C3618       C  0.86281901  0.64619243  0.08887461    -0.16800
C3619       C  0.86325987  0.61995186  0.14131611    -0.16800
C3620       C  0.76114969  0.62745166  0.14247627    -0.16800
H3621       H  0.78160671  0.64298045  0.06056501     0.16100
H3622       H  0.83711034  0.63955718  0.05995094     0.16100
H3623       H  0.78334817  0.59219373  0.16572486     0.16100
H3624       H  0.83864746  0.58794031  0.16501532     0.16100
H3625       H  0.70884504  0.66639294  0.10449111     0.14400
H3626       H  0.70929837  0.65274809  0.13321055     0.14400
H3627       H  0.91665399  0.65467734  0.10312713     0.14400
H3628       H  0.91684382  0.64001721  0.13158615     0.14400
H3629       H  0.81292838  0.65478091  0.10470066     0.27600
H3630       H  0.81321390  0.64313571  0.13015815     0.27600
N3631       N  0.81856982  0.86896448  0.14611327    -0.35100
N3632       N  0.77449735  0.85674041  0.12429546    -0.55700
N3633       N  0.81644308  0.84267244  0.10261568    -0.35100
N3634       N  0.86072714  0.85681774  0.12380686    -0.55700
C3635       C  0.79598936  0.88036492  0.15274755     0.28500
C3636       C  0.84185776  0.87996691  0.15256365     0.28500
C3637       C  0.79320821  0.84290323  0.09377043     0.28500
C3638       C  0.83893464  0.84287472  0.09351988     0.28500
C3639       C  0.75864891  0.85995171  0.13656735     0.37100
C3640       C  0.75745822  0.84565802  0.11376579     0.37100
C3641       C  0.87776868  0.85989403  0.13584252     0.37100
C3642       C  0.87660513  0.84572997  0.11299191     0.37100
C3643       C  0.80504749  0.89851970  0.16369004    -0.20400
C3644       C  0.83398521  0.89822814  0.16359584    -0.20400
C3645       C  0.80107208  0.84275351  0.07886865    -0.20400
C3646       C  0.82992191  0.84281296  0.07871279    -0.20400
C3647       C  0.73143500  0.85077718  0.13384120    -0.21500
C3648       C  0.73063352  0.84189375  0.11934598    -0.21500
C3649       C  0.90463064  0.85074276  0.13265636    -0.21500
C3650       C  0.90390715  0.84184519  0.11813213    -0.21500
C3651       C  0.76746298  0.87409177  0.14951289    -0.16800
C3652       C  0.87000701  0.87319320  0.14914095    -0.16800
C3653       C  0.86730907  0.84113244  0.09820221    -0.16800
C3654       C  0.76519208  0.84127317  0.09881227    -0.16800
H3655       H  0.79216343  0.91074341  0.17098908     0.16100
H3656       H  0.84766595  0.91020875  0.17079931     0.16100
H3657       H  0.78753344  0.84217660  0.06907753     0.16100
H3658       H  0.84276542  0.84236462  0.06879661     0.16100
H3659       H  0.71377310  0.85120455  0.14137065     0.14400
H3660       H  0.71223725  0.83414989  0.11351155     0.14400
H3661       H  0.92296695  0.85097719  0.13992858     0.14400
H3662       H  0.92154429  0.83387043  0.11198380     0.14400
H3663       H  0.81814005  0.85263119  0.13867147     0.27600
H3664       H  0.81696058  0.83917977  0.11408884     0.27600
C3665       C  0.72430087  0.60252420  0.82417671     0.14200
C3666       C  0.70511846  0.61881699  0.81597600     0.01100
C3667       C  0.70694543  0.64774854  0.81661874     0.16100
C3668       C  0.72696279  0.66023707  0.82596778     0.25500
C3669       C  0.74550731  0.64384520  0.83453675    -0.40800
C3670       C  0.74448056  0.61497710  0.83333770     0.32500
C3671       C  0.68214404  0.60537622  0.80758554     0.01200
F3672       F  0.68873497  0.66375490  0.80860115    -0.13100
F3673       F  0.76259699  0.59889749  0.84138121    -0.13700
C3674       C  0.66045848  0.59207928  0.81540349     0.16100
C3675       C  0.63946660  0.57768619  0.80769348     0.25500
C3676       C  0.63996968  0.57625089  0.79196252    -0.40800
C3677       C  0.66150829  0.59008522  0.78415548     0.32500
C3678       C  0.68240940  0.60460289  0.79192171     0.14200
F3679       F  0.66000105  0.59258716  0.83058649    -0.13100
F3680       F  0.66252237  0.58925033  0.76899098    -0.13700
F3681       F  0.61965870  0.56407359  0.81575442    -0.15900
F3682       F  0.70344190  0.61709405  0.78420479    -0.14500
F3683       F  0.72312003  0.57453368  0.82346234    -0.14500
F3684       F  0.72794052  0.68818576  0.82691541    -0.15900
C3685       C  0.97352395  0.60192260  0.81437731     0.14200
C3686       C  0.95148910  0.61672941  0.80758390     0.01100
C3687       C  0.94866175  0.61713392  0.79196762     0.16100
C3688       C  0.96656901  0.60126354  0.78325546     0.25500
C3689       C  0.98750070  0.58475081  0.79011788    -0.40800
C3690       C  0.99162377  0.58627031  0.80572004     0.32500
C3691       C  0.92948027  0.62868750  0.81690042     0.01200
F3692       F  0.92761150  0.63172197  0.78524968    -0.13100
F3693       F  0.50743867  0.56929754  0.81391562    -0.13700
C3694       C  0.92786643  0.65730864  0.81908770     0.16100
C3695       C  0.90703128  0.66806456  0.82829006     0.25500
C3696       C  0.88766454  0.65021462  0.83521051    -0.40800
C3697       C  0.88918372  0.62168019  0.83287378     0.32500
C3698       C  0.91002902  0.61096350  0.82381740     0.14200
F3699       F  0.94685401  0.67459198  0.81263755    -0.13100
F3700       F  0.87087898  0.60420758  0.83974281    -0.13700
F3701       F  0.90596048  0.69568591  0.83066070    -0.15900
F3702       F  0.91146530  0.58322135  0.82187965    -0.14500
F3703       F  0.97665717  0.60164055  0.82949432    -0.14500
F3704       F  0.96301184  0.60167851  0.76816965    -0.15900
C3705       C  0.64425792  0.88264530  0.81624750     0.14200
C3706       C  0.67323833  0.88244552  0.81342894     0.01100
C3707       C  0.68344469  0.89562401  0.80054326     0.16100
C3708       C  0.66516568  0.90998347  0.79094775     0.25500
C3709       C  0.63625395  0.91184747  0.79422506    -0.40800
C3710       C  0.62584786  0.89718887  0.80670866     0.32500
C3711       C  0.69330021  0.87136898  0.82468565     0.01200
F3712       F  0.71143841  0.89591189  0.79770224    -0.13100
F3713       F  0.59797148  0.89704789  0.80978732    -0.13700
C3714       C  0.70867780  0.84722687  0.82200388     0.16100
C3715       C  0.72947611  0.83847741  0.83221088     0.25500
C3716       C  0.73527247  0.85394140  0.84510331    -0.40800
C3717       C  0.71957222  0.87782484  0.84785986     0.32500
C3718       C  0.69872159  0.88645857  0.83772567     0.14200
F3719       F  0.70374887  0.83240735  0.80943872    -0.13100
F3720       F  0.72507386  0.89321244  0.86015267    -0.13700
F3721       F  0.74423575  0.81516180  0.82946443    -0.15900
F3722       F  0.68453059  0.91020168  0.84030176    -0.14500
F3723       F  0.63393645  0.86927534  0.82844988    -0.14500
F3724       F  0.67619780  0.92315824  0.77885718    -0.15900
C3725       C  0.91802344  0.85168791  0.82609212     0.14200
C3726       C  0.92760203  0.87901077  0.82784340     0.01100
C3727       C  0.91505922  0.89580115  0.83863176     0.16100
C3728       C  0.89286400  0.88561129  0.84723059     0.25500
C3729       C  0.88267078  0.85871264  0.84501945    -0.40800
C3730       C  0.89540211  0.84176563  0.83444959     0.32500
C3731       C  0.94849645  0.89083882  0.81738473     0.01200
F3732       F  0.92368704  0.92231645  0.84051217    -0.13100
F3733       F  0.88615908  0.81549233  0.83244079    -0.13700
C3734       C  0.94288011  0.89046285  0.80194634     0.16100
C3735       C  0.96092775  0.90360321  0.79192115     0.25500
C3736       C  0.98453627  0.91839826  0.79714359    -0.40800
C3737       C  0.99103788  0.91744847  0.81259913     0.32500
C3738       C  0.97316815  0.90371894  0.82261563     0.14200
F3739       F  0.91914232  0.87828101  0.79656669    -0.13100
F3740       F  0.51052585  0.92978410  0.81638012    -0.13700
F3741       F  0.95498214  0.90181119  0.77709979    -0.15900
F3742       F  0.97979211  0.90324743  0.83743353    -0.14500
F3743       F  0.93063129  0.83465668  0.81625963    -0.14500
F3744       F  0.88116195  0.90198181  0.85769756    -0.15900
C3745       C  0.71054003  0.68727800  0.06223525     0.14200
C3746       C  0.69241198  0.66534759  0.05847376     0.01100
C3747       C  0.69735568  0.63899439  0.06463885     0.16100
C3748       C  0.71985642  0.63470377  0.07464430     0.25500
C3749       C  0.73761287  0.65675449  0.07866622    -0.40800
C3750       C  0.73291778  0.68303500  0.07231941     0.32500
C3751       C  0.66702660  0.67079465  0.04918507     0.01200
F3752       F  0.68011663  0.61757734  0.06112137    -0.13100
F3753       F  0.74950993  0.70470054  0.07625329    -0.13700
C3754       C  0.66876191  0.67322867  0.03355031     0.16100
C3755       C  0.64584711  0.68338181  0.02515357     0.25500
C3756       C  0.62116186  0.69180230  0.03238966    -0.40800
C3757       C  0.61866025  0.68673131  0.04784518     0.32500
C3758       C  0.64141614  0.67635204  0.05617014     0.14200
F3759       F  0.69318246  0.66734679  0.02655129    -0.13100
F3760       F  0.59476085  0.69370393  0.05505138    -0.13700
F3761       F  0.64887083  0.68743316  0.01021256    -0.15900
F3762       F  0.63914065  0.67365418  0.07124027    -0.14500
F3763       F  0.70598651  0.71298002  0.05647404    -0.14500
F3764       F  0.72412255  0.60913642  0.08061886    -0.15900
C3765       C  0.97907920  0.68628745  0.05917148     0.14200
C3766       C  0.95764221  0.67271415  0.05122829     0.01100
C3767       C  0.96041774  0.66928545  0.03573575     0.16100
C3768       C  0.98366027  0.68054768  0.02816789     0.25500
C3769       C  0.00449062  0.69566489  0.03600047    -0.40800
C3770       C  0.00223793  0.69758013  0.05168961     0.32500
C3771       C  0.93162502  0.66410941  0.05910511     0.01200
F3772       F  0.94000903  0.65601997  0.02785026    -0.13100
F3773       F  0.52863504  0.70655882  0.06038342    -0.13700
C3774       C  0.90943641  0.68295890  0.06060790     0.16100
C3775       C  0.88632838  0.67648270  0.06962856     0.25500
C3776       C  0.88500149  0.65103355  0.07734198    -0.40800
C3777       C  0.90663266  0.63163422  0.07525837     0.32500
C3778       C  0.92986189  0.63823341  0.06631537     0.14200
F3779       F  0.91083788  0.70821308  0.05388832    -0.13100
F3780       F  0.90587160  0.60682198  0.08249007    -0.13700
F3781       F  0.86597861  0.69569157  0.07151765    -0.15900
F3782       F  0.95120138  0.61984777  0.06519186    -0.14500
F3783       F  0.97694419  0.68964744  0.07417388    -0.14500
F3784       F  0.98471558  0.67811005  0.01307982    -0.15900
C3785       C  0.65786611  0.82801886  0.05130392     0.14200
C3786       C  0.68391008  0.81477959  0.05295203     0.01100
C3787       C  0.69095194  0.79347608  0.04316207     0.16100
C3788       C  0.67152003  0.78421971  0.03251428     0.25500
C3789       C  0.64453458  0.79609715  0.03152051    -0.40800
C3790       C  0.63840305  0.81892813  0.04062646     0.32500
C3791       C  0.70333592  0.82221954  0.06526182     0.01200
F3792       F  0.71649586  0.78111109  0.04420431    -0.13100
F3793       F  0.61309700  0.83179153  0.03972231    -0.13700
C3794       C  0.71179754  0.80196698  0.07577144     0.16100
C3795       C  0.73163952  0.80830342  0.08682877     0.25500
C3796       C  0.74279315  0.83509273  0.08771809    -0.40800
C3797       C  0.73336961  0.85570219  0.07770046     0.32500
C3798       C  0.71393483  0.84924899  0.06643306     0.14200
F3799       F  0.70083380  0.77604310  0.07528354    -0.13100
F3800       F  0.74370560  0.88181730  0.07859309    -0.13700
F3801       F  0.74023672  0.78828450  0.09659307    -0.15900
F3802       F  0.70618958  0.86909591  0.05637068    -0.14500
F3803       F  0.65062566  0.84876150  0.06059659    -0.14500
F3804       F  0.67878566  0.76276587  0.02371705    -0.15900
C3805       C  0.91244319  0.80095019  0.07176042     0.14200
C3806       C  0.92486247  0.82234562  0.06330009     0.01100
C3807       C  0.91895727  0.84998742  0.06672704     0.16100
C3808       C  0.90090717  0.85612205  0.07844353     0.25500
C3809       C  0.88835711  0.83471311  0.08673591    -0.40800
C3810       C  0.89421271  0.80713328  0.08337610     0.32500
C3811       C  0.94509307  0.81569233  0.05146464     0.01200
F3812       F  0.93034152  0.87096990  0.05857201    -0.13100
F3813       F  0.88217385  0.78627419  0.09135110    -0.13700
C3814       C  0.93743789  0.79794927  0.03979099     0.16100
C3815       C  0.95766067  0.78865552  0.02982876     0.25500
C3816       C  0.98595751  0.79727217  0.03126603    -0.40800
C3817       C  0.99298996  0.81672360  0.04234759     0.32500
C3818       C  0.97281319  0.82553675  0.05243246     0.14200
F3819       F  0.91049128  0.78890934  0.03833340    -0.13100
F3820       F  0.52350583  0.83293253  0.04220479    -0.13700
F3821       F  0.94963817  0.77023431  0.01924920    -0.15900
F3822       F  0.98084147  0.84231279  0.06378598    -0.14500
F3823       F  0.91839193  0.77409721  0.06894463    -0.14500
F3824       F  0.89518991  0.88289510  0.08155066    -0.15900
C3825       C  0.64514812  0.78423946  0.94101873     0.14200
C3826       C  0.66609641  0.80269955  0.94582998     0.01100
C3827       C  0.66184086  0.81800671  0.95885056     0.16100
C3828       C  0.63807489  0.81316669  0.96761496     0.25500
C3829       C  0.61823786  0.79283565  0.96350254    -0.40800
C3830       C  0.62125086  0.77954493  0.94967547     0.32500
C3831       C  0.69230830  0.80592088  0.93720209     0.01200
F3832       F  0.68162188  0.83630269  0.96359510    -0.13100
F3833       F  0.60261461  0.75989122  0.94523373    -0.13700
C3834       C  0.69822969  0.83112685  0.93001711     0.16100
C3835       C  0.72172014  0.83372936  0.92087110     0.25500
C3836       C  0.73970479  0.81114140  0.91871692    -0.40800
C3837       C  0.73443383  0.78613384  0.92635960     0.32500
C3838       C  0.71091073  0.78358679  0.93561147     0.14200
F3839       F  0.68055117  0.85289212  0.93137308    -0.13100
F3840       F  0.75146421  0.76402082  0.92445159    -0.13700
F3841       F  0.72639861  0.85806792  0.91360300    -0.15900
F3842       F  0.70609811  0.75931291  0.94292054    -0.14500
F3843       F  0.64837289  0.76996006  0.92817821    -0.14500
F3844       F  0.63560678  0.82678791  0.98073201    -0.15900
C3845       C  0.98618710  0.77768877  0.93726520     0.14200
C3846       C  0.96536969  0.79671176  0.94126696     0.01100
C3847       C  0.96814071  0.81074607  0.95482386     0.16100
C3848       C  0.99005803  0.80433001  0.96479377     0.25500
C3849       C  0.00994170  0.78381274  0.96135793    -0.40800
C3850       C  0.00837130  0.77131098  0.94720648     0.32500
C3851       C  0.93961164  0.80068826  0.93199370     0.01200
F3852       F  0.94843200  0.82939226  0.95886647    -0.13100
F3853       F  0.52949524  0.75573725  0.94415619    -0.13700
C3854       C  0.91945306  0.77942549  0.93090667     0.16100
C3855       C  0.89437709  0.78358356  0.92281336     0.25500
C3856       C  0.88877171  0.80930157  0.91601410    -0.40800
C3857       C  0.90872513  0.83074014  0.91737125     0.32500
C3858       C  0.93400180  0.82639039  0.92518819     0.14200
F3859       F  0.92386532  0.75482245  0.93794726    -0.13100
F3860       F  0.90397487  0.85569615  0.91073304    -0.13700
F3861       F  0.87590410  0.76234805  0.92125874    -0.15900
F3862       F  0.95321653  0.84715002  0.92596879    -0.14500
F3863       F  0.98451659  0.76467794  0.92392541    -0.14500
F3864       F  0.99063486  0.81691325  0.97829243    -0.15900
C3865       C  0.69136770  0.69872467  0.95861368     0.14200
C3866       C  0.68249501  0.69005815  0.94442211     0.01100
C3867       C  0.65374614  0.68565998  0.94161801     0.16100
C3868       C  0.63391347  0.69141575  0.95259745     0.25500
C3869       C  0.64259373  0.70185568  0.96657368    -0.40800
C3870       C  0.67168785  0.70441606  0.96962375     0.32500
C3871       C  0.70313580  0.68724427  0.93231693     0.01200
F3872       F  0.64486864  0.67641790  0.92807969    -0.13100
F3873       F  0.68125894  0.71351585  0.98306328    -0.13700
C3874       C  0.72480020  0.66767565  0.93349266     0.16100
C3875       C  0.74470569  0.66566587  0.92217171     0.25500
C3876       C  0.74337578  0.68341642  0.90963262    -0.40800
C3877       C  0.72186732  0.70312418  0.90850973     0.32500
C3878       C  0.70180472  0.70495006  0.91975244     0.14200
F3879       F  0.72648866  0.65040344  0.94554288    -0.13100
F3880       F  0.72055542  0.72075272  0.89660109    -0.13700
F3881       F  0.76523512  0.64631520  0.92336535    -0.15900
F3882       F  0.68143418  0.72443435  0.91856509    -0.14500
F3883       F  0.71908001  0.70318752  0.96154807    -0.14500
F3884       F  0.60623573  0.68787860  0.94925344    -0.15900
C3885       C  0.97887521  0.68367987  0.94408600     0.14200
C3886       C  0.94969573  0.68570827  0.94625937     0.01100
C3887       C  0.93972627  0.69187320  0.96055040     0.16100
C3888       C  0.95840360  0.69714495  0.97227613     0.25500
C3889       C  0.98768757  0.69751295  0.96988590    -0.40800
C3890       C  0.99775837  0.68961773  0.95577608     0.32500
C3891       C  0.92944433  0.68325106  0.93360605     0.01200
F3892       F  0.91174638  0.69466223  0.96298027    -0.13100
F3893       F  0.02576344  0.68890494  0.95301082    -0.13700
C3894       C  0.90598194  0.66559614  0.93476742     0.16100
C3895       C  0.88523959  0.66555054  0.92358918     0.25500
C3896       C  0.88779389  0.68283152  0.91094569    -0.40800
C3897       C  0.91136417  0.70022345  0.90965211     0.32500
C3898       C  0.93206518  0.70035616  0.92085546     0.14200
F3899       F  0.90323884  0.64826789  0.94672104    -0.13100
F3900       F  0.91421718  0.71714854  0.89753805    -0.13700
F3901       F  0.86274928  0.64840260  0.92501286    -0.15900
F3902       F  0.95421252  0.71787224  0.91945549    -0.14500
F3903       F  0.98910092  0.67670890  0.93052098    -0.14500
F3904       F  0.94749860  0.70347439  0.98578629    -0.15900
C3905       C  0.93282512  0.91121830  0.16544123     0.14200
C3906       C  0.93437908  0.89962587  0.17987540     0.01100
C3907       C  0.91530579  0.87886046  0.18410687     0.16100
C3908       C  0.89465594  0.86990503  0.17401427     0.25500
C3909       C  0.89266397  0.88189130  0.15965332    -0.40800
C3910       C  0.91199186  0.90251349  0.15540024     0.32500
C3911       C  0.95402967  0.91122856  0.19096739     0.01200
F3912       F  0.91646452  0.86765538  0.19809272    -0.13100
F3913       F  0.91019363  0.91464035  0.14165386    -0.13700
C3914       C  0.94405805  0.93028236  0.20126863     0.16100
C3915       C  0.96246506  0.94265591  0.21139993     0.25500
C3916       C  0.99136260  0.93606589  0.21147311    -0.40800
C3917       C  0.00125231  0.91654585  0.20122810     0.32500
C3918       C  0.98264393  0.90428736  0.19099642     0.14200
F3919       F  0.91643276  0.93730161  0.20131512    -0.13100
F3920       F  0.02890807  0.90987462  0.20077048    -0.13700
F3921       F  0.95176914  0.96107063  0.22115594    -0.15900
F3922       F  0.99251280  0.88580616  0.18104376    -0.14500
F3923       F  0.95088416  0.93163947  0.16130170    -0.14500
F3924       F  0.87637279  0.84977674  0.17826992    -0.15900
C3925       C  0.70432676  0.91392870  0.16283768     0.14200
C3926       C  0.70159492  0.90405682  0.17759613     0.01100
C3927       C  0.72054972  0.88407165  0.18312498     0.16100
C3928       C  0.74222054  0.87446216  0.17408370     0.25500
C3929       C  0.74521342  0.88478370  0.15943603    -0.40800
C3930       C  0.72610201  0.90458215  0.15388966     0.32500
C3931       C  0.68146200  0.91730737  0.18774670     0.01200
F3932       F  0.71870466  0.87468741  0.19745122    -0.13100
F3933       F  0.72872129  0.91496973  0.13979231    -0.13700
C3934       C  0.66008793  0.90219946  0.19491932     0.16100
C3935       C  0.64273956  0.91504157  0.20538075     0.25500
C3936       C  0.64674564  0.94312820  0.20887829    -0.40800
C3937       C  0.66726351  0.95828052  0.20099351     0.32500
C3938       C  0.68448646  0.94551059  0.19067864     0.14200
F3939       F  0.65610859  0.87507021  0.19181805    -0.13100
F3940       F  0.67081447  0.98566001  0.20310377    -0.13700
F3941       F  0.62262753  0.89981494  0.21233636    -0.15900
F3942       F  0.70485184  0.96065196  0.18383976    -0.14500
F3943       F  0.68611385  0.93301597  0.15719281    -0.14500
F3944       F  0.76040798  0.85525927  0.17961905    -0.15900
C3945       C  0.96959653  0.60086080  0.18944620     0.14200
C3946       C  0.94951247  0.58297549  0.18304498     0.01100
C3947       C  0.94883775  0.55521363  0.18773680     0.16100
C3948       C  0.96728322  0.54565031  0.19884335     0.25500
C3949       C  0.98621533  0.56387736  0.20598108    -0.40800
C3950       C  0.98768282  0.59144679  0.20089285     0.32500
C3951       C  0.92836755  0.59329286  0.17200990     0.01200
F3952       F  0.92948169  0.53745100  0.18199187    -0.13100
F3953       F  0.50764587  0.60991789  0.20912609    -0.13700
C3954       C  0.92431289  0.57984310  0.15826645     0.16100
C3955       C  0.90290565  0.58828611  0.14841682     0.25500
C3956       C  0.88561103  0.61069167  0.15196908    -0.40800
C3957       C  0.88988029  0.62443827  0.16554673     0.32500
C3958       C  0.91090659  0.61565951  0.17555627     0.14200
F3959       F  0.94113026  0.55854405  0.15436552    -0.13100
F3960       F  0.87358074  0.64632165  0.16910157    -0.13700
F3961       F  0.89883831  0.57446744  0.13543491    -0.15900
F3962       F  0.91363952  0.62847294  0.18892472    -0.14500
F3963       F  0.97145990  0.62755486  0.18472645    -0.14500
F3964       F  0.96638203  0.51840184  0.20255793    -0.15900
C3965       C  0.65361669  0.60383437  0.18863607     0.14200
C3966       C  0.67802866  0.58942242  0.18482923     0.01100
C3967       C  0.68426199  0.56445579  0.19221967     0.16100
C3968       C  0.66679855  0.55434612  0.20352817     0.25500
C3969       C  0.64247900  0.56896309  0.20767654    -0.40800
C3970       C  0.63592051  0.59370337  0.19991128     0.32500
C3971       C  0.69763620  0.60061932  0.17348694     0.01200
F3972       F  0.70779198  0.55017935  0.18873240    -0.13100
F3973       F  0.61282915  0.60857488  0.20335488    -0.13700
C3974       C  0.71413478  0.62405743  0.17661798     0.16100
C3975       C  0.73454960  0.63315247  0.16646505     0.25500
C3976       C  0.73854091  0.61903502  0.15300823    -0.40800
C3977       C  0.72160843  0.59598617  0.14974961     0.32500
C3978       C  0.70134648  0.58681530  0.15991802     0.14200
F3979       F  0.71110849  0.63749597  0.18974817    -0.13100
F3980       F  0.72530155  0.58194694  0.13686300    -0.13700
F3981       F  0.75072404  0.65542702  0.16984253    -0.15900
F3982       F  0.68551842  0.56425735  0.15661809    -0.14500
F3983       F  0.64692316  0.62777455  0.18140830    -0.14500
F3984       F  0.67402523  0.53029357  0.21049244    -0.15900
C3985       C  0.65020644  0.62838473  0.66143597     0.14200
C3986       C  0.66363630  0.62851980  0.67553238     0.01100
C3987       C  0.68558984  0.64742226  0.67818902     0.16100
C3988       C  0.69279726  0.66696390  0.66721019     0.25500
C3989       C  0.67796108  0.66799505  0.65354088    -0.40800
C3990       C  0.65704458  0.64818393  0.65060360     0.32500
C3991       C  0.65256466  0.61088990  0.68778041     0.01200
F3992       F  0.69891637  0.64799900  0.69168289    -0.13100
F3993       F  0.64237215  0.64882390  0.63748735    -0.13700
C3994       C  0.66972812  0.59169359  0.69545024     0.16100
C3995       C  0.65824402  0.57426682  0.70646269     0.25500
C3996       C  0.62937587  0.57548905  0.70966682    -0.40800
C3997       C  0.61255230  0.59531908  0.70234914     0.32500
C3998       C  0.62410100  0.61306629  0.69164998     0.14200
F3999       F  0.69722291  0.58899324  0.69181998    -0.13100
F4000       F  0.58481325  0.59749885  0.70557285    -0.13700
F4001       F  0.67495003  0.55519826  0.71333399    -0.15900
F4002       F  0.60739327  0.63236342  0.68494592    -0.14500
F4003       F  0.62970415  0.60962113  0.65837420    -0.14500
F4004       F  0.71344688  0.68564454  0.67010660    -0.15900
C4005       C  0.63815364  0.84490242  0.66666887     0.14200
C4006       C  0.65396246  0.84459008  0.68006616     0.01100
C4007       C  0.67798094  0.82782082  0.68121510     0.16100
C4008       C  0.68576346  0.81130857  0.66922343     0.25500
C4009       C  0.66947153  0.81112569  0.65601382    -0.40800
C4010       C  0.64574017  0.82815972  0.65478213     0.32500
C4011       C  0.64534746  0.86216938  0.69263404     0.01200
F4012       F  0.69338957  0.82683858  0.69408086    -0.13100
F4013       F  0.62950752  0.82799207  0.64219683    -0.13700
C4014       C  0.61780754  0.86036080  0.69813864     0.16100
C4015       C  0.60818239  0.87975204  0.70829525     0.25500
C4016       C  0.62612152  0.90076290  0.71340148    -0.40800
C4017       C  0.65417473  0.90158315  0.70868253     0.32500
C4018       C  0.66370714  0.88245917  0.69828784     0.14200
F4019       F  0.59997714  0.84029784  0.69331166    -0.13100
F4020       F  0.67164534  0.92219286  0.71316338    -0.13700
F4021       F  0.58108561  0.87846514  0.71289268    -0.15900
F4022       F  0.69025266  0.88492740  0.69298704    -0.14500
F4023       F  0.61534078  0.86151828  0.66509313    -0.14500
F4024       F  0.70881647  0.79496377  0.67058084    -0.15900
C4025       C  0.95978004  0.58572186  0.68640124     0.14200
C4026       C  0.95244020  0.61182896  0.69182526     0.01100
C4027       C  0.95982892  0.61888265  0.70657284     0.16100
C4028       C  0.97523613  0.60039624  0.71556316     0.25500
C4029       C  0.98373497  0.57491622  0.70981250    -0.40800
C4030       C  0.97553259  0.56750128  0.69528461     0.32500
C4031       C  0.93946661  0.63245299  0.68161181     0.01200
F4032       F  0.95332068  0.64413554  0.71199154    -0.13100
F4033       F  0.48765110  0.54901611  0.68832806    -0.13700
C4034       C  0.91359550  0.64483980  0.68495088     0.16100
C4035       C  0.90219550  0.66496700  0.67531222     0.25500
C4036       C  0.91638965  0.67257897  0.66220569    -0.40800
C4037       C  0.94199577  0.66001126  0.65879252     0.32500
C4038       C  0.95356652  0.64025288  0.66847191     0.14200
F4039       F  0.89937902  0.63732212  0.69745190    -0.13100
F4040       F  0.95609117  0.66746646  0.64623990    -0.13700
F4041       F  0.87745884  0.67714908  0.67874966    -0.15900
F4042       F  0.97900353  0.62927607  0.66524810    -0.14500
F4043       F  0.95197891  0.57806726  0.67238922    -0.14500
F4044       F  0.98302627  0.60788400  0.72960554    -0.15900
C4045       C  0.95448764  0.85164137  0.66778870     0.14200
C4046       C  0.94492205  0.85325768  0.68258726     0.01100
C4047       C  0.92225791  0.83660286  0.68716241     0.16100
C4048       C  0.90962327  0.81828371  0.67714357     0.25500
C4049       C  0.91957239  0.81633398  0.66245740    -0.40800
C4050       C  0.94197895  0.83321269  0.65782064     0.32500
C4051       C  0.95938268  0.87150113  0.69336771     0.01200
F4052       F  0.91311073  0.83733336  0.70148619    -0.13100
F4053       F  0.95221557  0.83121600  0.64375038    -0.13700
C4054       C  0.94467011  0.89252169  0.70063668     0.16100
C4055       C  0.95881765  0.91035356  0.71040617     0.25500
C4056       C  0.98789386  0.90745449  0.71292496    -0.40800
C4057       C  0.49322146  0.88994293  0.70543011     0.32500
C4058       C  0.98822509  0.86809214  0.69628480     0.14200
F4059       F  0.91685785  0.89643871  0.69780135    -0.13100
F4060       F  0.52139698  0.88655866  0.70712318    -0.13700
F4061       F  0.94440762  0.93127438  0.71674184    -0.15900
F4062       F  0.49250842  0.85073380  0.68982165    -0.14500
F4063       F  0.97613020  0.86775899  0.66304299    -0.14500
F4064       F  0.88819625  0.80186083  0.68185069    -0.15900
C4065       C  0.85153961  0.61215520  0.54433578     0.14200
C4066       C  0.84915787  0.60853176  0.55984689     0.01100
C4067       C  0.84085129  0.58275591  0.56565016     0.16100
C4068       C  0.83418830  0.56103666  0.55603299     0.25500
C4069       C  0.83550026  0.56481695  0.54038386    -0.40800
C4070       C  0.84482951  0.59053912  0.53467573     0.32500
C4071       C  0.85485256  0.63181894  0.56997248     0.01200
F4072       F  0.83869846  0.57881462  0.58065957    -0.13100
F4073       F  0.84572515  0.59550074  0.51972263    -0.13700
C4074       C  0.83290802  0.64354540  0.57815781     0.16100
C4075       C  0.83844618  0.66520843  0.58797672     0.25500
C4076       C  0.86598430  0.67517707  0.58982196    -0.40800
C4077       C  0.88788095  0.66366956  0.58155421     0.32500
C4078       C  0.88229482  0.64226269  0.57157493     0.14200
F4079       F  0.80615942  0.63403466  0.57659394    -0.13100
F4080       F  0.91467388  0.67290313  0.58336594    -0.13700
F4081       F  0.81711499  0.67615553  0.59593406    -0.15900
F4082       F  0.90372799  0.63122103  0.56373790    -0.14500
F4083       F  0.85897846  0.63713814  0.53851728    -0.14500
F4084       F  0.82551930  0.53661730  0.56205546    -0.15900
C4085       C  0.84143272  0.91324434  0.56663139     0.14200
C4086       C  0.85237290  0.88883023  0.56070824     0.01100
C4087       C  0.85763079  0.88757384  0.54530786     0.16100
C4088       C  0.85039263  0.90971866  0.53583263     0.25500
C4089       C  0.83757557  0.93357517  0.54160112    -0.40800
C4090       C  0.83432396  0.93548514  0.55721298     0.32500
C4091       C  0.85745623  0.86446083  0.57055639     0.01200
F4092       F  0.86825258  0.86422554  0.53930341    -0.13100
F4093       F  0.82319056  0.95845557  0.56336250    -0.13700
C4094       C  0.83512839  0.85237225  0.57855187     0.16100
C4095       C  0.84006209  0.83005755  0.58830573     0.25500
C4096       C  0.86730692  0.81941452  0.59011798    -0.40800
C4097       C  0.88948761  0.83097640  0.58188319     0.32500
C4098       C  0.88460959  0.85335297  0.57216154     0.14200
F4099       F  0.80854398  0.86216140  0.57686697    -0.13100
F4100       F  0.91593676  0.82084024  0.58349763    -0.13700
F4101       F  0.81840481  0.81910966  0.59620894    -0.15900
F4102       F  0.90652625  0.86472487  0.56465084    -0.14500
F4103       F  0.83700964  0.91529139  0.58155779    -0.14500
F4104       F  0.85437472  0.90695959  0.52091113    -0.15900
C4105       C  0.70944083  0.58624066  0.54863004     0.14200
C4106       C  0.71080198  0.61430454  0.54451425     0.01100
C4107       C  0.72007380  0.62191589  0.53022838     0.16100
C4108       C  0.73078907  0.60204150  0.52077446     0.25500
C4109       C  0.73270591  0.57427781  0.52560491    -0.40800
C4110       C  0.72012042  0.56620995  0.53913062     0.32500
C4111       C  0.70618045  0.63576648  0.55569005     0.01200
F4112       F  0.72084412  0.64891548  0.52592834    -0.13100
F4113       F  0.72104819  0.53952333  0.54395072    -0.13700
C4114       C  0.72845567  0.65355842  0.55962772     0.16100
C4115       C  0.72462600  0.67357646  0.57046023     0.25500
C4116       C  0.69865304  0.67579657  0.57755725    -0.40800
C4117       C  0.67643939  0.65797663  0.57375191     0.32500
C4118       C  0.68015350  0.63807862  0.56279015     0.14200
F4119       F  0.75411522  0.65101401  0.55325996    -0.13100
F4120       F  0.65133415  0.65981019  0.58074809    -0.13700
F4121       F  0.74637073  0.69040731  0.57430760    -0.15900
F4122       F  0.65843732  0.62115739  0.55904669    -0.14500
F4123       F  0.70050145  0.57853459  0.56244099    -0.14500
F4124       F  0.74161022  0.61040641  0.50745827    -0.15900
C4125       C  0.71904234  0.87363490  0.53188247     0.14200
C4126       C  0.70865921  0.88109821  0.54589823     0.01100
C4127       C  0.70832374  0.90908689  0.54984786     0.16100
C4128       C  0.72073406  0.92901876  0.54052124     0.25500
C4129       C  0.73393624  0.92108674  0.52721102    -0.40800
C4130       C  0.73169553  0.89338879  0.52263175     0.32500
C4131       C  0.70291840  0.85936847  0.55722770     0.01200
F4132       F  0.69839703  0.91675811  0.56335867    -0.13100
F4133       F  0.74335521  0.88501070  0.50964904    -0.13700
C4134       C  0.72508110  0.84219813  0.56207060     0.16100
C4135       C  0.72054716  0.82173933  0.57288580     0.25500
C4136       C  0.69385090  0.81821310  0.57913154    -0.40800
C4137       C  0.67156599  0.83525000  0.57433102     0.32500
C4138       C  0.67611151  0.85587800  0.56346654     0.14200
F4139       F  0.75132858  0.84564982  0.55648896    -0.13100
F4140       F  0.64546829  0.83162193  0.58004855    -0.13700
F4141       F  0.74227453  0.80539691  0.57737081    -0.15900
F4142       F  0.65439933  0.87215045  0.55890095    -0.14500
F4143       F  0.71872151  0.84677532  0.52765440    -0.14500
F4144       F  0.72231072  0.95551461  0.54528619    -0.15900
C4145       C  0.68404326  0.67019442  0.33202791     0.14200
C4146       C  0.66224618  0.65064628  0.33343799     0.01100
C4147       C  0.64582846  0.65037235  0.34643325     0.16100
C4148       C  0.65110417  0.66926605  0.35782897     0.25500
C4149       C  0.67279023  0.68882997  0.35640084    -0.40800
C4150       C  0.68926798  0.68917196  0.34343925     0.32500
C4151       C  0.65558349  0.63128019  0.32116683     0.01200
F4152       F  0.62404242  0.63236776  0.34785551    -0.13100
F4153       F  0.71029320  0.70799275  0.34184976    -0.13700
C4154       C  0.65584995  0.60255336  0.32376273     0.16100
C4155       C  0.64629422  0.58439270  0.31270016     0.25500
C4156       C  0.63615561  0.59475282  0.29894057    -0.40800
C4157       C  0.63727907  0.62339507  0.29608621     0.32500
C4158       C  0.64690722  0.64149866  0.30709994     0.14200
F4159       F  0.66469519  0.59218987  0.33717620    -0.13100
F4160       F  0.62871082  0.63393113  0.28265938    -0.13700
F4161       F  0.64533281  0.55688101  0.31577049    -0.15900
F4162       F  0.64641137  0.66912580  0.30428158    -0.14500
F4163       F  0.70028315  0.67081744  0.31962891    -0.14500
F4164       F  0.63464375  0.66893167  0.37014852    -0.15900
C4165       C  0.68543444  0.85912953  0.33734943     0.14200
C4166       C  0.66018648  0.87413693  0.33730248     0.01100
C4167       C  0.64009661  0.86855382  0.34835026     0.16100
C4168       C  0.64495949  0.84789377  0.35914964     0.25500
C4169       C  0.66991497  0.83247363  0.35899203    -0.40800
C4170       C  0.69027927  0.83843232  0.34814383     0.32500
C4171       C  0.65353941  0.89365783  0.32491952     0.01200
F4172       F  0.61533473  0.88242458  0.34830392    -0.13100
F4173       F  0.71471706  0.82403318  0.34797915    -0.13700
C4174       C  0.64596582  0.88324415  0.31087110     0.16100
C4175       C  0.63761493  0.90114230  0.29930278     0.25500
C4176       C  0.63697604  0.92989802  0.30151837    -0.40800
C4177       C  0.64514311  0.94041431  0.31549990     0.32500
C4178       C  0.65314622  0.92235534  0.32718492     0.14200
F4179       F  0.64559531  0.85556102  0.30855751    -0.13100
F4180       F  0.64373030  0.96793749  0.31810998    -0.13700
F4181       F  0.62981536  0.89027052  0.28594321    -0.15900
F4182       F  0.65987897  0.93276736  0.34079621    -0.14500
F4183       F  0.70517717  0.86433501  0.32681644    -0.14500
F4184       F  0.62505373  0.84240301  0.36955072    -0.15900
C4185       C  0.74236558  0.59219913  0.44912120     0.14200
C4186       C  0.72273401  0.60780851  0.45693857     0.01100
C4187       C  0.71292898  0.59786461  0.47077702     0.16100
C4188       C  0.72403824  0.57341815  0.47710088     0.25500
C4189       C  0.74534477  0.55873860  0.46970855    -0.40800
C4190       C  0.75342535  0.56796067  0.45532914     0.32500
C4191       C  0.71370835  0.63478314  0.45050955     0.01200
F4192       F  0.69370216  0.61250969  0.47848874    -0.13100
F4193       F  0.77321319  0.55435243  0.44745754    -0.13700
C4194       C  0.68682785  0.63788560  0.44406217     0.16100
C4195       C  0.68049404  0.66129312  0.43527193     0.25500
C4196       C  0.70093995  0.68191003  0.43285290    -0.40800
C4197       C  0.72727653  0.67949737  0.43999159     0.32500
C4198       C  0.73359348  0.65614386  0.44876337     0.14200
F4199       F  0.66739575  0.61744262  0.44546958    -0.13100
F4200       F  0.74742344  0.69899663  0.43773076    -0.13700
F4201       F  0.65488875  0.66325998  0.42850095    -0.15900
F4202       F  0.75966910  0.65364859  0.45496184    -0.14500
F4203       F  0.75159271  0.60103105  0.43555156    -0.14500
F4204       F  0.71482780  0.56490806  0.49071223    -0.15900
C4205       C  0.68149431  0.87017667  0.44574782     0.14200
C4206       C  0.70871201  0.87369335  0.45160268     0.01100
C4207       C  0.72845818  0.85234570  0.45042070     0.16100
C4208       C  0.72181021  0.82861782  0.44238922     0.25500
C4209       C  0.69533842  0.82603183  0.43546278    -0.40800
C4210       C  0.67478141  0.84636581  0.43773050     0.32500
C4211       C  0.71776536  0.90048712  0.45760773     0.01200
F4212       F  0.75469974  0.85525646  0.45634560    -0.13100
F4213       F  0.64906165  0.84413612  0.43111418    -0.13700
C4214       C  0.71039367  0.90828315  0.47206409     0.16100
C4215       C  0.72298955  0.93141567  0.47856792     0.25500
C4216       C  0.74374956  0.94661071  0.47078177    -0.40800
C4217       C  0.74890141  0.94016567  0.45572577     0.32500
C4218       C  0.73598996  0.91725337  0.44922228     0.14200
F4219       F  0.69243354  0.89246320  0.48022029    -0.13100
F4220       F  0.76764142  0.95500904  0.44753217    -0.13700
F4221       F  0.71616626  0.93767364  0.49282235    -0.15900
F4222       F  0.74237067  0.91052612  0.43494888    -0.14500
F4223       F  0.66217431  0.89060099  0.44689065    -0.14500
F4224       F  0.74190219  0.80920115  0.44034480    -0.15900
C4225       C  0.96233342  0.60392131  0.31646931     0.14200
C4226       C  0.98128205  0.62073541  0.32445473     0.01100
C4227       C  0.01012895  0.61916140  0.32136751     0.16100
C4228       C  0.51093397  0.61040643  0.30617669     0.25500
C4229       C  0.00080356  0.58592527  0.30168147    -0.40800
C4230       C  0.97203318  0.58652033  0.30520667     0.32500
C4231       C  0.97115622  0.64119533  0.33536498     0.01200
F4232       F  0.02892474  0.63499561  0.32897900    -0.13100
F4233       F  0.95313398  0.57132407  0.29730319    -0.13700
C4234       C  0.98116060  0.64065822  0.35021685     0.16100
C4235       C  0.97401182  0.66167774  0.36006063     0.25500
C4236       C  0.95626735  0.68333880  0.35532059    -0.40800
C4237       C  0.94575236  0.68356940  0.34056342     0.32500
C4238       C  0.95319915  0.66270726  0.33065245     0.14200
F4239       F  0.99792482  0.61975403  0.35516893    -0.13100
F4240       F  0.92834245  0.70407573  0.33575872    -0.13700
F4241       F  0.98452264  0.66101026  0.37424225    -0.15900
F4242       F  0.94356779  0.66395564  0.31630982    -0.14500
F4243       F  0.93442347  0.60458348  0.31949142    -0.14500
F4244       F  0.53673258  0.61568789  0.30042815    -0.15900
C4245       C  0.01404125  0.89520427  0.32230991     0.14200
C4246       C  0.98483166  0.89177098  0.32360319     0.01100
C4247       C  0.96685598  0.90803211  0.31449721     0.16100
C4248       C  0.97806480  0.92692186  0.30405949     0.25500
C4249       C  0.00737298  0.92979297  0.30262852    -0.40800
C4250       C  0.51556971  0.91899719  0.31250936     0.32500
C4251       C  0.97376462  0.87091336  0.33439977     0.01200
F4252       F  0.93852110  0.90555726  0.31566949    -0.13100
F4253       F  0.54383731  0.92304820  0.31230497    -0.13700
C4254       C  0.98287747  0.87123498  0.34942635     0.16100
C4255       C  0.97550901  0.84984754  0.35927353     0.25500
C4256       C  0.95800528  0.82813498  0.35446725    -0.40800
C4257       C  0.94819154  0.82816609  0.33956904     0.32500
C4258       C  0.95616615  0.84925527  0.32958079     0.14200
F4259       F  0.99911677  0.89230269  0.35455645    -0.13100
F4260       F  0.93091664  0.80769225  0.33470756    -0.13700
F4261       F  0.98553909  0.85028812  0.37354821    -0.15900
F4262       F  0.94741729  0.84802758  0.31509999    -0.14500
F4263       F  0.03203537  0.87939231  0.33059459    -0.14500
F4264       F  0.96033782  0.94152379  0.29499868    -0.15900
C4265       C  0.85669905  0.62704104  0.47050066     0.14200
C4266       C  0.87258089  0.62127902  0.45774569     0.01100
C4267       C  0.87750498  0.59356664  0.45405001     0.16100
C4268       C  0.86653845  0.57199546  0.46280165     0.25500
C4269       C  0.84989479  0.57763728  0.47532949    -0.40800
C4270       C  0.84529636  0.60549810  0.47913420     0.32500
C4271       C  0.88319725  0.64393416  0.44791589     0.01200
F4272       F  0.89178561  0.58734506  0.44146436    -0.13100
F4273       F  0.82927056  0.61201811  0.49105696    -0.13700
C4274       C  0.91192310  0.64550345  0.44431901     0.16100
C4275       C  0.92161519  0.66549784  0.43415021     0.25500
C4276       C  0.90280306  0.68442836  0.42755787    -0.40800
C4277       C  0.87426770  0.68336988  0.43137702     0.32500
C4278       C  0.86448528  0.66325161  0.44143543     0.14200
F4279       F  0.93059070  0.62764574  0.45069075    -0.13100
F4280       F  0.85579879  0.70147132  0.42503488    -0.13700
F4281       F  0.94933214  0.66638999  0.43069639    -0.15900
F4282       F  0.83657005  0.66202889  0.44441234    -0.14500
F4283       F  0.85199029  0.65358055  0.47453630    -0.14500
F4284       F  0.87079859  0.54560505  0.45841196    -0.15900
C4285       C  0.88027254  0.91514932  0.45463186     0.14200
C4286       C  0.87602791  0.88687976  0.45745732     0.01100
C4287       C  0.86122015  0.87844721  0.47023467     0.16100
C4288       C  0.84945984  0.89803935  0.47963637     0.25500
C4289       C  0.85242012  0.92641776  0.47642125    -0.40800
C4290       C  0.86861285  0.93479801  0.46403854     0.32500
C4291       C  0.88542317  0.86623587  0.44658885     0.01200
F4292       F  0.85764856  0.85116451  0.47340522    -0.13100
F4293       F  0.87153628  0.96195732  0.46038055    -0.13700
C4294       C  0.91404097  0.86373147  0.44310842     0.16100
C4295       C  0.92268508  0.84408185  0.43281064     0.25500
C4296       C  0.90284210  0.82668002  0.42598334    -0.40800
C4297       C  0.87423370  0.82938547  0.42927509     0.32500
C4298       C  0.86553476  0.84917003  0.43945491     0.14200
F4299       F  0.93357695  0.88003669  0.44984144    -0.13100
F4300       F  0.85479223  0.81301945  0.42249612    -0.13700
F4301       F  0.95038958  0.84180091  0.42955733    -0.15900
F4302       F  0.83765651  0.85208009  0.44215202    -0.14500
F4303       F  0.89429528  0.92374485  0.44225739    -0.14500
F4304       F  0.83462684  0.88922369  0.49168394    -0.15900
loop_ 
_geom_bond_atom_site_label_1 
_geom_bond_atom_site_label_2 
_geom_bond_distance 
_geom_bond_site_symmetry_2 
_ccdc_geom_bond_type 
N1            C6   1.352       .  A
N1            C5   1.351       .  A
N1           H33   1.039       .  S
N2            C9   1.352       .  A
N2           C10   1.350       .  A
N3            C8   1.358       .  A
N3            C7   1.356       .  A
N3           H34   1.041       .  S
N4           C11   1.351       .  A
N4           C12   1.350       .  A
C5           C13   1.387       .  A
C5           C21   1.413       .  A
C6           C22   1.413       .  A
C6           C14   1.387       .  A
C7           C15   1.387       .  A
C7           C24   1.420       .  A
C8           C23   1.422       .  A
C8           C16   1.387       .  A
C9           C21   1.412       .  A
C9           C17   1.386       .  A
C10          C24   1.411       .  A
C10          C18   1.387       .  A
C11          C19   1.385       .  A
C11          C22   1.410       .  A
C12          C20   1.387       .  A
C12          C23   1.413       .  A
C13          C14   1.377       .  A
C13          H25   1.082       .  S
C14          H26   1.082       .  S
C15          C16   1.380       .  A
C15          H27   1.082       .  S
C16          H28   1.082       .  S
C17          C18   1.373       .  A
C17          H29   1.082       .  S
C18          H30   1.082       .  S
C19          C20   1.373       .  A
C19          H31   1.082       .  S
C20          H32   1.082       .  S
C21        C1048   1.482       .  S
C22        C1068   1.484       .  S
C23        C1028   1.499       .  S
C24        C1008   1.488       .  S
N35          C40   1.351       .  A
N35          C39   1.351       .  A
N35          H67   1.038       .  S
N36          C43   1.352       .  A
N36          C44   1.351       .  A
N37          C42   1.356       .  A
N37          C41   1.357       .  A
N37          H68   1.039       .  S
N38          C45   1.353       .  A
N38          C46   1.352       .  A
C39          C47   1.387       .  A
C39          C55   1.412       .  A
C40          C56   1.412       .  A
C40          C48   1.387       .  A
C41          C49   1.387       .  A
C41          C58   1.423       .  A
C42          C57   1.422       .  A
C42          C50   1.387       .  A
C43          C55   1.413       .  A
C43          C51   1.384       .  A
C44          C58   1.417       .  A
C44          C52   1.389       .  A
C45          C53   1.385       .  A
C45          C56   1.413       .  A
C46          C54   1.388       .  A
C46          C57   1.416       .  A
C47          C48   1.376       .  A
C47          H59   1.082       .  S
C48          H60   1.082       .  S
C49          C50   1.381       .  A
C49          H61   1.082       .  S
C50          H62   1.082       .  S
C51          C52   1.369       .  A
C51          H63   1.082       .  S
C52          H64   1.081       .  S
C53          C54   1.370       .  A
C53          H65   1.082       .  S
C54          H66   1.082       .  S
C55         C941   1.483       .  S
C56         C921   1.483       .  S
C57         C968   1.490       .  S
C58         C981   1.492       .  S
O69          C77   1.270       .  A
O69         Co89   2.008       .  S
O70          C78   1.246       .  A
O70         Co90   1.968       .  S
O71          C79   1.264       .  A
O71         Co91   1.980       .  S
O72          C80   1.255       .  A
O72       Co1168   1.994       .  S
O73          C79   1.266       .  A
O73         Co90   1.993       .  S
O74          C80   1.250       .  A
O74         Co89   1.971       .  S
O75          C78   1.257       .  A
O75         Co92   2.010       .  S
O76          C77   1.266       .  A
O76       Co1167   1.984       .  S
C77        C1061   1.488       .  S
C78         C841   1.494       .  S
C79        C1041   1.477       .  S
C80         C861   1.489       .  S
O81          C94   1.267       .  A
O81         Co89   1.878       .  S
O82          C95   1.261       .  A
O82         Co90   1.996       .  S
O83          C96   1.266       .  A
O83       Co1167   2.008       .  S
O84          C97   1.300       .  A
O84         Co92   2.084       .  S
O85          C97   1.265       .  A
O85         Co90   1.870       .  S
O86          C96   1.259       .  A
O86         Co89   1.991       .  S
O87          C94   1.304       .  A
O87       Co1168   2.093       .  S
O88          C95   1.265       .  A
O88         Co91   2.005       .  S
Co89       O1169   1.919       .  S
Co90         O93   1.916       .  S
Co91       O1152   1.971   1_545  S
Co91       O1159   2.008   1_545  S
Co91         O93   2.097       .  S
Co92       O1148   1.995   1_545  S
Co92       O1163   2.088   1_545  S
Co92         O93   2.258       .  S
O93       Co1165   1.921   1_545  S
C94         C901   1.480       .  S
C95         C961   1.490       .  S
C96         C988   1.488       .  S
C97         C881   1.472       .  S
N98         C103   1.353       .  A
N98         C102   1.355       .  A
N98         H130   1.038       .  S
N99         C106   1.352       .  A
N99         C107   1.351       .  A
N100        C105   1.354       .  A
N100        C104   1.352       .  A
N100        H131   1.039       .  S
N101        C108   1.349       .  A
N101        C109   1.352       .  A
C102        C110   1.386       .  A
C102        C118   1.417       .  A
C103        C119   1.416       .  A
C103        C111   1.387       .  A
C104        C112   1.388       .  A
C104        C121   1.415       .  A
C105        C120   1.414       .  A
C105        C113   1.387       .  A
C106        C118   1.415       .  A
C106        C114   1.386       .  A
C107        C121   1.412       .  A
C107        C115   1.386       .  A
C108        C116   1.388       .  A
C108        C119   1.412       .  A
C109        C117   1.385       .  A
C109        C120   1.409       .  A
C110        C111   1.378       .  A
C110        H122   1.082       .  S
C111        H123   1.082       .  S
C112        C113   1.374       .  A
C112        H124   1.082       .  S
C113        H125   1.082       .  S
C114        C115   1.372       .  A
C114        H126   1.082       .  S
C115        H127   1.082       .  S
C116        C117   1.371       .  A
C116        H128   1.082       .  S
C117        H129   1.082       .  S
C118        C848   1.492       .  S
C119        C868   1.483       .  S
C120        C821   1.487       .  S
C121        C808   1.482       .  S
N132        C137   1.350       .  A
N132        C136   1.353       .  A
N132        H164   1.041       .  S
N133        C140   1.349       .  A
N133        C141   1.348       .  A
N134        C139   1.349       .  A
N134        C138   1.348       .  A
N134        H165   1.038       .  S
N135        C142   1.347       .  A
N135        C143   1.349       .  A
C136        C144   1.387       .  A
C136        C152   1.413       .  A
C137        C153   1.412       .  A
C137        C145   1.388       .  A
C138        C146   1.387       .  A
C138        C155   1.408       .  A
C139        C154   1.410       .  A
C139        C147   1.387       .  A
C140        C152   1.407       .  A
C140        C148   1.385       .  A
C141        C155   1.409       .  A
C141        C149   1.387       .  A
C142        C150   1.385       .  A
C142        C153   1.406       .  A
C143        C151   1.387       .  A
C143        C154   1.410       .  A
C144        C145   1.375       .  A
C144        H156   1.082       .  S
C145        H157   1.082       .  S
C146        C147   1.377       .  A
C146        H158   1.082       .  S
C147        H159   1.082       .  S
C148        C149   1.373       .  A
C148        H160   1.082       .  S
C149        H161   1.082       .  S
C150        C151   1.375       .  A
C150        H162   1.082       .  S
C151        H163   1.082       .  S
C152        C761   1.488       .  S
C153        C781   1.477       .  S
C154        C908   1.478       .  S
C155        C888   1.471       .  S
C166        N184   1.346       .  A
C166       C2355   1.469       .  S
C166       C3153   1.481       .  S
N167        N184   1.317       .  A
N167        N189   1.319       .  A
N167       Co204   2.072       .  S
C168        N193   1.344       .  A
C168        H213   1.081       .  S
C168        C206   1.463       .  S
H169        C210   1.081       .  S
C170        N194   1.347       .  A
C170        H199   1.081       .  S
C170        C174   1.465       .  S
Co171       N179   2.092       .  S
Co171       N187   2.081       .  S
Co171      N1265   2.088       .  S
Co171      N1287   2.064       .  S
Co171      Cl215   2.454       .  S
N172        C210   1.332       .  A
N172        N179   1.317       .  A
N172       Co173   2.069       .  S
Co173       N176   2.068       .  S
Co173       N193   2.081       .  S
Co173       N180   2.085       .  S
Co173      Cl215   2.444       .  S
C174        N212   1.342       .  A
C174        C948   1.464       .  S
N175        N182   1.321       .  A
N175        N205   1.328       .  A
N175       Co208   2.091       .  S
N176        N194   1.320       .  A
N176        N212   1.319       .  A
N177       C2358   1.347       .  A
N177       N2339   1.320       .  A
H178        C203   1.080       .  S
N179       N2352   1.330       .  A
N180        N198   1.319       .  A
N180        N185   1.328       .  A
C181        N185   1.353       .  A
C181        C209   1.456       .  S
C181        C708   1.478       .  S
N182        C197   1.335       .  A
N182       Co204   2.079       .  S
C183       N2363   1.336       .  A
C183        H217   1.081       .  S
C183       C2338   1.458       .  S
C186        N207   1.354       .  A
C186       C2335   1.455   1_455  S
C186       C2873   1.479   1_455  S
N187        N193   1.319       .  A
N187       N2329   1.319       .  A
N188        C214   1.346       .  A
N188        N190   1.318       .  A
N188       Co204   2.084       .  S
N189       C2355   1.343       .  A
N189      Co1247   2.080       .  S
N190        N218   1.315       .  A
N190       Co208   2.068       .  S
H191        C214   1.080       .  S
H192        C209   1.081       .  S
N194      Co1284   2.095       .  S
N195        N207   1.329       .  A
N195        N211   1.320       .  A
N195       Co204   2.093       .  S
C196       N2352   1.357       .  A
C196        C210   1.453       .  S
C196       C3173   1.482       .  S
C197        H201   1.082       .  S
C197        C216   1.453       .  S
N198        C209   1.336       .  A
N198      Co1284   2.078       .  S
N200       C2348   1.357       .  A
N200       N2331   1.330       .  A
C202        N218   1.344       .  A
C202        C214   1.472       .  S
C202        C741   1.482       .  S
C203       N2341   1.344       .  A
C203       C2318   1.470       .  S
Co204     Cl1291   2.449       .  S
N205        C216   1.353       .  A
C206       N2329   1.347       .  A
C206       C2840   1.473   1_455  S
Co208      N1270   2.092   1_545  S
Co208      N1274   2.079   1_545  S
Co208     Cl1291   2.447       .  S
N211       C2335   1.336   1_455  A
N211      Co1247   2.081       .  S
Cl215     Co1280   2.453       .  S
Cl215     Co1284   2.449       .  S
C216        C928   1.472       .  S
O219        C227   1.271   1_655  A
O219       Co239   1.876   1_656  S
O220        C228   1.267       .  A
O220       Co240   1.983       .  S
O221        C229   1.290       .  A
O221       Co241   1.977       .  S
O222        C230   1.261       .  A
O222       Co242   1.980       .  S
O223        C229   1.288       .  A
O223       Co240   1.966   1_556  S
O224        C230   1.261       .  A
O224       Co239   1.984       .  S
O225        C228   1.269       .  A
O225       Co242   2.002       .  S
O226        C227   1.304       .  A
O226       Co241   2.104       .  S
C227       C2813   1.489   1_455  S
C228        C528   1.486       .  S
C229        C641   1.480       .  S
C230       C2693   1.482       .  S
O231        C244   1.279       .  A
O231       Co239   2.012       .  S
O232        C245   1.246       .  A
O232       Co240   1.964   1_556  S
O233        C246   1.294       .  A
O233       Co241   2.070       .  S
O234        C247   1.264       .  A
O234       Co242   1.966       .  S
O235        C247   1.274       .  A
O235       Co240   2.006       .  S
O236        C246   1.259       .  A
O236       Co239   1.950   1_556  S
O237        C244   1.271       .  A
O237       Co242   1.966       .  S
O238        C245   1.277       .  A
O238       Co241   2.050       .  S
Co239       O243   1.884       .  S
Co240       O243   1.987       .  S
Co241       O243   2.048   1_556  S
Co242       O243   2.009       .  S
C244       C2740   1.479   1_455  S
C245        C601   1.485       .  S
C246       C2773   1.478       .  S
C247        C561   1.475       .  S
N248        C253   1.356       .  A
N248        C252   1.351       .  A
N248        H280   1.037       .  S
N249        C256   1.352       .  A
N249        C257   1.354       .  A
N250        C255   1.351       .  A
N250        C254   1.354       .  A
N250        H281   1.036       .  S
N251        C258   1.351       .  A
N251        C259   1.349       .  A
C252        C260   1.389       .  A
C252        C268   1.417       .  A
C253        C269   1.413       .  A
C253        C261   1.385       .  A
C254        C262   1.387       .  A
C254        C271   1.415       .  A
C255        C270   1.411       .  A
C255        C263   1.386       .  A
C256        C268   1.417       .  A
C256        C264   1.387       .  A
C257        C271   1.417       .  A
C257        C265   1.385       .  A
C258        C266   1.386       .  A
C258        C269   1.411       .  A
C259        C267   1.387       .  A
C259        C270   1.411       .  A
C260        C261   1.375       .  A
C260        H272   1.083       .  S
C261        H273   1.082       .  S
C262        C263   1.374       .  A
C262        H274   1.082       .  S
C263        H275   1.082       .  S
C264        C265   1.379       .  A
C264        H276   1.082       .  S
C265        H277   1.082       .  S
C266        C267   1.373       .  A
C266        H278   1.082       .  S
C267        H279   1.082       .  S
C268        C608   1.485       .  S
C269        C488   1.490       .  S
C270        C501   1.476       .  S
C271        C628   1.494       .  S
N282        C287   1.353       .  A
N282        C286   1.350       .  A
N282        H314   1.033       .  S
N283        C290   1.353       .  A
N283        C291   1.354       .  A
N284        C289   1.352       .  A
N284        C288   1.351       .  A
N284        H315   1.033       .  S
N285        C292   1.349       .  A
N285        C293   1.349       .  A
C286        C294   1.388       .  A
C286        C302   1.414       .  A
C287        C303   1.414       .  A
C287        C295   1.387       .  A
C288        C296   1.386       .  A
C288        C305   1.411       .  A
C289        C304   1.413       .  A
C289        C297   1.387       .  A
C290        C302   1.417       .  A
C290        C298   1.387       .  A
C291        C305   1.415       .  A
C291        C299   1.385       .  A
C292        C300   1.387       .  A
C292        C303   1.410       .  A
C293        C301   1.386       .  A
C293        C304   1.409       .  A
C294        C295   1.377       .  A
C294        H306   1.083       .  S
C295        H307   1.082       .  S
C296        C297   1.374       .  A
C296        H308   1.082       .  S
C297        H309   1.082       .  S
C298        C299   1.373       .  A
C298        H310   1.082       .  S
C299        H311   1.082       .  S
C300        C301   1.370       .  A
C300        H312   1.082       .  S
C301        H313   1.082       .  S
C302        C648   1.484       .  S
C303        C668   1.480       .  S
C304        C468   1.477       .  S
C305        C441   1.486       .  S
C316       N2486   1.354       .  A
C316        C353   1.461   1_655  S
C316       C2980   1.484       .  S
N317        N339   1.318       .  A
N317       N2486   1.328   1_455  A
N317       Co354   2.091       .  S
C318        N343   1.342       .  A
C318        H363   1.081       .  S
C318        C356   1.459       .  S
H319        C360   1.081       .  S
C320        N344   1.339       .  A
C320        H349   1.081       .  S
C320        C324   1.464       .  S
Co321       N339   2.077       .  S
Co321       N329   2.076       .  S
Co321      N1437   2.084       .  S
Co321      N1413   2.073       .  S
Co321      Cl365   2.433       .  S
N322        C360   1.343       .  A
N322        N329   1.321       .  A
N322       Co323   2.087       .  S
Co323       N326   2.099       .  S
Co323      N1419   2.090       .  S
Co323      N1406   2.089       .  S
Co323      Cl365   2.465       .  S
C324        N362   1.355       .  A
C324        C481   1.491       .  S
N325        N332   1.317       .  A
N325        N355   1.324       .  A
N325       Co358   2.089       .  S
N326        N344   1.320       .  A
N326        N362   1.327       .  A
N327        C356   1.346       .  A
N327        N337   1.320       .  A
H328        C353   1.081       .  S
N329        N350   1.321       .  A
N330        N348   1.319       .  A
N330        N335   1.324       .  A
N330      Co1399   2.087   1_545  S
C331        N335   1.352       .  A
C331        C359   1.465       .  S
C331        C448   1.484       .  S
N332       C2499   1.335   1_455  A
N332       Co354   2.070       .  S
C333        N361   1.338       .  A
C333        H367   1.081       .  S
C333        C336   1.457       .  S
N334       C2468   1.353       .  A
N334       N2469   1.327       .  A
C336       N2509   1.354   1_455  A
C336       C2953   1.479   1_455  S
N337        N343   1.319       .  A
N337      Co1397   2.073   1_545  S
N338       C2516   1.337   1_455  A
N338        N340   1.319       .  A
N338      Co1430   2.074   1_545  S
N339        C353   1.337       .  A
N340        N368   1.323       .  A
N340      Co1434   2.088   1_545  S
H341        C364   1.081       .  S
H342        C359   1.081       .  S
N343      Co1399   2.077   1_545  S
N344       Co358   2.083       .  S
N345        N361   1.318       .  A
N345       N2509   1.327   1_455  A
N345      Co1430   2.095   1_545  S
C346        N350   1.346       .  A
C346        C360   1.461       .  S
C346        C788   1.467       .  S
C347       N2484   1.336       .  A
C347        H351   1.080       .  S
C347        C366   1.462       .  S
N348        C359   1.340       .  A
N348      Co1434   2.082   1_545  S
C352       N2520   1.352       .  A
C352        C364   1.465       .  S
C352        C461   1.482       .  S
Co354      N1414   2.076       .  S
Co354      N1421   2.072       .  S
Co354      Cl365   2.457       .  S
N355       C2518   1.354   1_455  A
C356        C768   1.466       .  S
N357       C2488   1.353       .  A
N357       N2497   1.327       .  A
Co358      N1416   2.081       .  S
Co358      N1424   2.085       .  S
Co358      Cl365   2.441       .  S
N361      Co1397   2.075   1_545  S
C364       N2490   1.338       .  A
C366       N2507   1.353       .  A
C366        C508   1.482       .  S
N368       C2504   1.352       .  A
N369        C374   1.353       .  A
N369        C373   1.355       .  A
N369        H401   1.040       .  S
N370        C377   1.351       .  A
N370        C378   1.350       .  A
N371        C376   1.354       .  A
N371        C375   1.352       .  A
N371        H402   1.040       .  S
N372        C379   1.349       .  A
N372        C380   1.351       .  A
C373        C381   1.386       .  A
C373        C389   1.418       .  A
C374        C390   1.418       .  A
C374        C382   1.387       .  A
C375        C383   1.388       .  A
C375        C392   1.413       .  A
C376        C391   1.413       .  A
C376        C384   1.386       .  A
C377        C389   1.415       .  A
C377        C385   1.388       .  A
C378        C392   1.409       .  A
C378        C386   1.385       .  A
C379        C387   1.388       .  A
C379        C390   1.413       .  A
C380        C388   1.384       .  A
C380        C391   1.409       .  A
C381        C382   1.380       .  A
C381        H393   1.082       .  S
C382        H394   1.082       .  S
C383        C384   1.376       .  A
C383        H395   1.082       .  S
C384        H396   1.082       .  S
C385        C386   1.371       .  A
C385        H397   1.082       .  S
C386        H398   1.083       .  S
C387        C388   1.371       .  A
C387        H399   1.082       .  S
C388        H400   1.082       .  S
C389        C521   1.493       .  S
C390        C548   1.486       .  S
C391        C728   1.487       .  S
C392        C748   1.481       .  S
N403        C408   1.355       .  A
N403        C407   1.355       .  A
N403        H435   1.040       .  S
N404        C411   1.348       .  A
N404        C412   1.350       .  A
N405        C410   1.350       .  A
N405        C409   1.350       .  A
N405        H436   1.039       .  S
N406        C413   1.351       .  A
N406        C414   1.351       .  A
C407        C415   1.387       .  A
C407        C423   1.418       .  A
C408        C424   1.417       .  A
C408        C416   1.386       .  A
C409        C417   1.387       .  A
C409        C426   1.409       .  A
C410        C425   1.410       .  A
C410        C418   1.387       .  A
C411        C423   1.410       .  A
C411        C419   1.387       .  A
C412        C426   1.409       .  A
C412        C420   1.386       .  A
C413        C421   1.386       .  A
C413        C424   1.412       .  A
C414        C422   1.386       .  A
C414        C425   1.412       .  A
C415        C416   1.377       .  A
C415        H427   1.082       .  S
C416        H428   1.082       .  S
C417        C418   1.376       .  A
C417        H429   1.082       .  S
C418        H430   1.082       .  S
C419        C420   1.375       .  A
C419        H431   1.082       .  S
C420        H432   1.082       .  S
C421        C422   1.374       .  A
C421        H433   1.082       .  S
C422        H434   1.082       .  S
C423        C701   1.487       .  S
C424        C681   1.492       .  S
C425        C581   1.481       .  S
C426        C568   1.477       .  S
C437        C438   1.402       .  A
C437        C442   1.395       .  A
C437        F455   1.358       .  S
C438        C439   1.405       .  A
C438        C443   1.475       .  S
C439        C440   1.403       .  A
C439        F444   1.357       .  S
C440        C441   1.406       .  A
C440        F456   1.357       .  S
C441        C442   1.405       .  A
C442        F445   1.358       .  S
C443        C446   1.402       .  A
C443        C450   1.402       .  A
C446        C447   1.397       .  A
C446        F451   1.358       .  S
C447        C448   1.411       .  A
C447        F453   1.356       .  S
C448        C449   1.410       .  A
C449        C450   1.401       .  A
C449        F452   1.358       .  S
C450        F454   1.358       .  S
C457        C458   1.401       .  A
C457        C462   1.396       .  A
C457        F475   1.358       .  S
C458        C459   1.402       .  A
C458        C463   1.472       .  S
C459        C460   1.397       .  A
C459        F464   1.358       .  S
C460        C461   1.410       .  A
C460        F476   1.357       .  S
C461        C462   1.411       .  A
C462       F2617   1.358       .  S
C463        C466   1.404       .  A
C463        C470   1.405       .  A
F465       C2614   1.357   1_455  S
C466        C467   1.397       .  A
C466        F471   1.357       .  S
C467        C468   1.403       .  A
C467        F473   1.357       .  S
C468        C469   1.403       .  A
C469        C470   1.396       .  A
C469        F472   1.358       .  S
C470        F474   1.358       .  S
C477        C478   1.403       .  A
C477        C482   1.402       .  A
C477        F495   1.358       .  S
C478        C479   1.403       .  A
C478        C483   1.482       .  S
C479        C480   1.401       .  A
C479        F484   1.358       .  S
C480        C481   1.410       .  A
C480        F496   1.357       .  S
C481        C482   1.412       .  A
C482        F485   1.357       .  S
C483        C486   1.406       .  A
C483        C490   1.405       .  A
C486        C487   1.402       .  A
C486        F491   1.358       .  S
C487        C488   1.406       .  A
C487        F493   1.357       .  S
C488        C489   1.405       .  A
C489        C490   1.400       .  A
C489        F492   1.358       .  S
C490        F494   1.358       .  S
C497        C498   1.405       .  A
C497        C502   1.398       .  A
C497        F515   1.358       .  S
C498        C499   1.402       .  A
C498        C503   1.470       .  S
C499        C500   1.395       .  A
C499        F504   1.358       .  S
C500        C501   1.403       .  A
C500        F516   1.358       .  S
C501        C502   1.403       .  A
C502        F505   1.358       .  S
C503        C506   1.399       .  A
C503        C510   1.402       .  A
C506        C507   1.394       .  A
C506        F511   1.358       .  S
C507        C508   1.411       .  A
C507        F513   1.356       .  S
C508        C509   1.410       .  A
C509        C510   1.400       .  A
C509       F2664   1.358       .  S
C510        F514   1.358       .  S
F512       C2661   1.358   1_455  S
C517        C518   1.408       .  A
C517        C522   1.400       .  A
C517        F535   1.358       .  S
C518        C519   1.405       .  A
C518        C523   1.486       .  S
C519        C520   1.403       .  A
C519        F524   1.358       .  S
C520        C521   1.409       .  A
C520        F536   1.358       .  S
C521        C522   1.404       .  A
C522        F525   1.358       .  S
C523        C526   1.405       .  A
C523        C530   1.405       .  A
C526        C527   1.403       .  A
C526        F531   1.358       .  S
C527        C528   1.410       .  A
C527        F533   1.357       .  S
C528        C529   1.410       .  A
C529        C530   1.401       .  A
C529        F532   1.358       .  S
C530        F534   1.358       .  S
C537        C538   1.403       .  A
C537        C542   1.400       .  A
C537        F555   1.358       .  S
C538        C539   1.403       .  A
C538        C543   1.477       .  S
C539        C540   1.399       .  A
C539        F544   1.358       .  S
C540        C541   1.409       .  A
C540        F556   1.356       .  S
C541        C542   1.410       .  A
C541       C2382   1.482       .  S
C542       F2697   1.358       .  S
C543        C546   1.406       .  A
C543        C550   1.404       .  A
F545       C2694   1.359       .  S
C546        C547   1.396       .  A
C546        F551   1.358       .  S
C547        C548   1.402       .  A
C547        F553   1.358       .  S
C548        C549   1.409       .  A
C549        C550   1.402       .  A
C549        F552   1.358       .  S
C550        F554   1.358       .  S
C557        C558   1.401       .  A
C557        C562   1.393       .  A
C557        F575   1.358       .  S
C558        C559   1.404       .  A
C558        C563   1.472       .  S
C559        C560   1.396       .  A
C559        F564   1.357       .  S
C560        C561   1.406       .  A
C560        F576   1.358       .  S
C561        C562   1.413       .  A
C562        F565   1.359       .  S
C563        C566   1.404       .  A
C563        C570   1.405       .  A
C566        C567   1.394       .  A
C566        F571   1.358       .  S
C567        C568   1.402       .  A
C567        F573   1.358       .  S
C568        C569   1.404       .  A
C569        C570   1.398       .  A
C569        F572   1.357       .  S
C570        F574   1.358       .  S
C577        C578   1.406       .  A
C577        C582   1.396       .  A
C577        F595   1.358       .  S
C578        C579   1.408       .  A
C578        C583   1.481       .  S
C579        C580   1.399       .  A
C579        F584   1.358       .  S
C580        C581   1.403       .  A
C580        F596   1.358       .  S
C581        C582   1.403       .  A
C582        F585   1.358       .  S
C583        C586   1.406       .  A
C583        C590   1.403       .  A
C586        C587   1.402       .  A
C586        F591   1.358       .  S
C587        C588   1.411       .  A
C587        F593   1.358       .  S
C588        C589   1.410       .  A
C588       C2396   1.485       .  S
C589        C590   1.394       .  A
C589       F2744   1.358       .  S
C590        F594   1.358       .  S
F592       C2741   1.358   1_455  S
C597        C598   1.405       .  A
C597        C602   1.402       .  A
C597        F615   1.357       .  S
C598        C599   1.402       .  A
C598        C603   1.483       .  S
C599        C600   1.400       .  A
C599        F604   1.358       .  S
C600        C601   1.413       .  A
C600        F616   1.358       .  S
C601        C602   1.410       .  A
C602        F605   1.357       .  S
C603        C606   1.403       .  A
C603        C610   1.408       .  A
C606        C607   1.398       .  A
C606        F611   1.357       .  S
C607        C608   1.406       .  A
C607        F613   1.358       .  S
C608        C609   1.403       .  A
C609        C610   1.402       .  A
C609        F612   1.358       .  S
C610        F614   1.355       .  S
C617        C618   1.409       .  A
C617        C622   1.405       .  A
C617        F635   1.357       .  S
C618        C619   1.405       .  A
C618        C623   1.492       .  S
C619        C620   1.400       .  A
C619        F624   1.358       .  S
C620        C621   1.410       .  A
C620        F636   1.358       .  S
C621        C622   1.409       .  A
C621       C2398   1.487       .  S
C622       F2777   1.357       .  S
C623        C626   1.409       .  A
C623        C630   1.406       .  A
F625       C2774   1.357       .  S
C626        C627   1.405       .  A
C626        F631   1.356       .  S
C627        C628   1.405       .  A
C627        F633   1.357       .  S
C628        C629   1.406       .  A
C629        C630   1.402       .  A
C629        F632   1.357       .  S
C630        F634   1.357       .  S
C637        C638   1.405       .  A
C637        C642   1.394       .  A
C637        F655   1.358       .  S
C638        C639   1.405       .  A
C638        C643   1.481       .  S
C639        C640   1.398       .  A
C639        F644   1.358       .  S
C640        C641   1.411       .  A
C640        F656   1.358       .  S
C641        C642   1.409       .  A
C642        F645   1.358       .  S
C643        C646   1.405       .  A
C643        C650   1.409       .  A
C646        C647   1.394       .  A
C646        F651   1.358       .  S
C647        C648   1.405       .  A
C647        F653   1.358       .  S
C648        C649   1.404       .  A
C649        C650   1.399       .  A
C649        F652   1.358       .  S
C650        F654   1.357       .  S
C657        C658   1.406       .  A
C657        C662   1.403       .  A
C657        F675   1.358       .  S
C658        C659   1.403       .  A
C658        C663   1.482       .  S
C659        C660   1.394       .  A
C659        F664   1.358       .  S
C660        C661   1.412       .  A
C660        F676   1.358       .  S
C661        C662   1.411       .  A
C661       C2379   1.488       .  S
C662        F665   1.358       .  S
C663        C666   1.407       .  A
C663        C670   1.408       .  A
C666        C667   1.397       .  A
C666        F671   1.358       .  S
C667        C668   1.402       .  A
C667        F673   1.358       .  S
C668        C669   1.402       .  A
C669        C670   1.398       .  A
C669        F672   1.358       .  S
C670        F674   1.356       .  S
C677        C678   1.404       .  A
C677        C682   1.400       .  A
C677        F695   1.357       .  S
C678        C679   1.406       .  A
C678        C683   1.481       .  S
C679        C680   1.403       .  A
C679        F684   1.358       .  S
C680        C681   1.406       .  A
C680        F696   1.358       .  S
C681        C682   1.406       .  A
C682        F685   1.358       .  S
C683        C686   1.399       .  A
C683        C690   1.406       .  A
C686        C687   1.396       .  A
C686        F691   1.358       .  S
C687        C688   1.412       .  A
C687        F693   1.358       .  S
C688        C689   1.411       .  A
C688       C2358   1.491       .  S
C689        C690   1.408       .  A
C689        F692   1.357       .  S
C690        F694   1.357       .  S
C697        C698   1.405       .  A
C697        C702   1.398       .  A
C697        F715   1.358       .  S
C698        C699   1.405       .  A
C698        C703   1.479       .  S
C699        C700   1.400       .  A
C699        F704   1.357       .  S
C700        C701   1.405       .  A
C700        F716   1.358       .  S
C701        C702   1.406       .  A
C702        F705   1.358       .  S
C703        C706   1.406       .  A
C703        C710   1.403       .  A
C706        C707   1.402       .  A
C706        F711   1.358       .  S
C707        C708   1.405       .  A
C707        F713   1.358       .  S
C708        C709   1.408       .  A
C709        C710   1.397       .  A
C709        F712   1.358       .  S
C710        F714   1.358       .  S
C717        C718   1.406       .  A
C717        C722   1.405       .  A
C717        F735   1.358       .  S
C718        C719   1.400       .  A
C718        C723   1.477       .  S
C719        C720   1.395       .  A
C719        F724   1.358       .  S
C720        C721   1.409       .  A
C720        F736   1.357       .  S
C721        C722   1.408       .  A
C721       C2338   1.483       .  S
C722       F2877   1.358       .  S
C723        C726   1.404       .  A
C723        C730   1.405       .  A
F725       C2874   1.358   1_455  S
C726        C727   1.398       .  A
C726        F731   1.358       .  S
C727        C728   1.405       .  A
C727        F733   1.358       .  S
C728        C729   1.405       .  A
C729        C730   1.401       .  A
C729        F732   1.358       .  S
C730        F734   1.357       .  S
C737        C738   1.404       .  A
C737        C742   1.403       .  A
C737        F755   1.357       .  S
C738        C739   1.397       .  A
C738        C743   1.471       .  S
C739        C740   1.389       .  A
C739        F744   1.359       .  S
C740        C741   1.413       .  A
C740        F756   1.358       .  S
C741        C742   1.410       .  A
C742        F745   1.356       .  S
C743        C746   1.403       .  A
C743        C750   1.404       .  A
C746        C747   1.398       .  A
C746        F751   1.358       .  S
C747        C748   1.405       .  A
C747        F753   1.357       .  S
C748        C749   1.404       .  A
C749        C750   1.394       .  A
C749        F752   1.358       .  S
C750        F754   1.358       .  S
C757        C758   1.404       .  A
C757        C762   1.391       .  A
C757        F775   1.358       .  S
C758        C759   1.404       .  A
C758        C763   1.476       .  S
C759        C760   1.400       .  A
C759        F764   1.358       .  S
C760        C761   1.409       .  A
C760        F776   1.358       .  S
C761        C762   1.407       .  A
C762        F765   1.358       .  S
C763        C766   1.406       .  A
C763        C770   1.405       .  A
C766        C767   1.402       .  A
C766        F771   1.358       .  S
C767        C768   1.407       .  A
C767        F773   1.358       .  S
C768        C769   1.401       .  A
C769        C770   1.390       .  A
C769        F772   1.358       .  S
C770        F774   1.358       .  S
C777        C778   1.409       .  A
C777        C782   1.393       .  A
C777        F795   1.358       .  S
C778        C779   1.408       .  A
C778        C783   1.481       .  S
C779        C780   1.399       .  A
C779        F784   1.357       .  S
C780        C781   1.403       .  A
C780        F796   1.358       .  S
C781        C782   1.400       .  A
C782        F785   1.358       .  S
C783        C786   1.407       .  A
C783        C790   1.408       .  A
C786        C787   1.394       .  A
C786        F791   1.358       .  S
C787        C788   1.402       .  A
C787        F793   1.358       .  S
C788        C789   1.405       .  A
C789        C790   1.401       .  A
C789        F792   1.357       .  S
C790        F794   1.358       .  S
C797        C798   1.404       .  A
C797        C802   1.396       .  A
C797        F815   1.358       .  S
C798        C799   1.406       .  A
C798        C803   1.479       .  S
C799        C800   1.400       .  A
C799        F804   1.358       .  S
C800        C801   1.405       .  A
C800        F816   1.358       .  S
C801        C802   1.408       .  A
C801       C2488   1.475       .  S
C802       F2957   1.357       .  S
C803        C806   1.406       .  A
C803        C810   1.406       .  A
F805       C2954   1.358       .  S
C806        C807   1.399       .  A
C806        F811   1.358       .  S
C807        C808   1.404       .  A
C807        F813   1.358       .  S
C808        C809   1.403       .  A
C809        C810   1.396       .  A
C809        F812   1.358       .  S
C810        F814   1.358       .  S
C817        C818   1.405       .  A
C817        C822   1.396       .  A
C817        F835   1.358       .  S
C818        C819   1.405       .  A
C818        C823   1.478       .  S
C819        C820   1.401       .  A
C819        F824   1.357       .  S
C820        C821   1.406       .  A
C820        F836   1.357       .  S
C821        C822   1.404       .  A
C822        F825   1.358       .  S
C823        C826   1.405       .  A
C823        C830   1.404       .  A
C826        C827   1.403       .  A
C826        F831   1.357       .  S
C827        C828   1.407       .  A
C827        F833   1.357       .  S
C828       C2981   1.404       .  A
C828       C2468   1.474       .  S
C829       C2980   1.407       .  A
C829       C2982   1.394       .  A
C829        F832   1.357   1_655  S
C830       C2981   1.395       .  A
C830       F2986   1.358       .  S
F834       C2982   1.358       .  S
C837        C838   1.405       .  A
C837        C842   1.406       .  A
C837        F855   1.358       .  S
C838        C839   1.404       .  A
C838        C843   1.487       .  S
C839        C840   1.399       .  A
C839        F844   1.358       .  S
C840        C841   1.412       .  A
C840        F856   1.358       .  S
C841        C842   1.414       .  A
C842        F845   1.358       .  S
C843        C846   1.408       .  A
C843        C850   1.406       .  A
C846        C847   1.399       .  A
C846        F851   1.358       .  S
C847        C848   1.403       .  A
C847        F853   1.358       .  S
C848        C849   1.408       .  A
C849        C850   1.404       .  A
C849        F852   1.358       .  S
C850        F854   1.357       .  S
C857        C858   1.402       .  A
C857        C862   1.396       .  A
C857        F875   1.359       .  S
C858        C859   1.405       .  A
C858        C863   1.482       .  S
C859        C860   1.403       .  A
C859        F864   1.358       .  S
C860        C861   1.411       .  A
C860        F876   1.357       .  S
C861        C862   1.414       .  A
C862        F865   1.358       .  S
C863        C866   1.408       .  A
C863        C870   1.406       .  A
C866        C867   1.398       .  A
C866        F871   1.358       .  S
C867        C868   1.402       .  A
C867        F873   1.358       .  S
C868        C869   1.405       .  A
C869        C870   1.400       .  A
C869        F872   1.358       .  S
C870        F874   1.358       .  S
C877        C878   1.403       .  A
C877        C882   1.397       .  A
C877        F895   1.358       .  S
C878        C879   1.401       .  A
C878        C883   1.468       .  S
C879        C880   1.392       .  A
C879        F884   1.358       .  S
C880        C881   1.409       .  A
C880        F896   1.358       .  S
C881        C882   1.407       .  A
C882        F885   1.358       .  S
C883        C886   1.405       .  A
C883        C890   1.404       .  A
C886        C887   1.390       .  A
C886        F891   1.358       .  S
C887        C888   1.400       .  A
C887        F893   1.358       .  S
C888        C889   1.403       .  A
C889        C890   1.398       .  A
C889        F892   1.357       .  S
C890        F894   1.358       .  S
C897        C898   1.402       .  A
C897        C902   1.395       .  A
C897        F915   1.358       .  S
C898        C899   1.405       .  A
C898        C903   1.477       .  S
C899        C900   1.402       .  A
C899        F904   1.358       .  S
C900        C901   1.409       .  A
C900        F916   1.358       .  S
C901        C902   1.410       .  A
C902        F905   1.358       .  S
C903        C906   1.406       .  A
C903        C910   1.406       .  A
C906        C907   1.393       .  A
C906        F911   1.358       .  S
C907        C908   1.401       .  A
C907        F913   1.358       .  S
C908        C909   1.404       .  A
C909        C910   1.401       .  A
C909        F912   1.357       .  S
C910        F914   1.357       .  S
C917        C918   1.406       .  A
C917        C922   1.403       .  A
C917        F935   1.358       .  S
C918        C919   1.405       .  A
C918        C923   1.477       .  S
C919        C920   1.393       .  A
C919        F924   1.358       .  S
C920        C921   1.401       .  A
C920        F936   1.358       .  S
C921        C922   1.406       .  A
C922        F925   1.357       .  S
C923        C926   1.406       .  A
C923        C930   1.403       .  A
C926        C927   1.402       .  A
C926        F931   1.357       .  S
C927        C928   1.404       .  A
C927        F933   1.357       .  S
C928        C929   1.406       .  A
C929        C930   1.395       .  A
C929        F932   1.358       .  S
C930        F934   1.358       .  S
C937        C938   1.408       .  A
C937        C942   1.400       .  A
C937        F955   1.357       .  S
C938        C939   1.410       .  A
C938        C943   1.487       .  S
C939        C940   1.397       .  A
C939        F944   1.358       .  S
C940        C941   1.401       .  A
C940        F956   1.358       .  S
C941        C942   1.403       .  A
C942        F945   1.357       .  S
C943        C946   1.410       .  A
C943        C950   1.408       .  A
C946        C947   1.401       .  A
C946        F951   1.357       .  S
C947        C948   1.402       .  A
C947        F953   1.358       .  S
C948        C949   1.401       .  A
C949        C950   1.396       .  A
C949        F952   1.358       .  S
C950        F954   1.358       .  S
C957        C958   1.405       .  A
C957        C962   1.399       .  A
C957        F975   1.358       .  S
C958        C959   1.406       .  A
C958        C963   1.487       .  S
C959        C960   1.404       .  A
C959        F964   1.358       .  S
C960        C961   1.410       .  A
C960        F976   1.356       .  S
C961        C962   1.411       .  A
C962        F965   1.358       .  S
C963        C966   1.407       .  A
C963        C970   1.408       .  A
C966        C967   1.404       .  A
C966        F971   1.358       .  S
C967        C968   1.407       .  A
C967        F973   1.358       .  S
C968        C969   1.403       .  A
C969        C970   1.399       .  A
C969        F972   1.358       .  S
C970        F974   1.358       .  S
C977        C978   1.406       .  A
C977        C982   1.404       .  A
C977        F995   1.357       .  S
C978        C979   1.408       .  A
C978        C983   1.486       .  S
C979        C980   1.399       .  A
C979        F984   1.358       .  S
C980        C981   1.404       .  A
C980        F996   1.358       .  S
C981        C982   1.408       .  A
C982        F985   1.357       .  S
C983        C986   1.405       .  A
C983        C990   1.406       .  A
C986        C987   1.403       .  A
C986        F991   1.358       .  S
C987        C988   1.410       .  A
C987        F993   1.355       .  S
C988        C989   1.408       .  A
C989        C990   1.399       .  A
C989        F992   1.358       .  S
C990        F994   1.358       .  S
C997        C998   1.405       .  A
C997       C1002   1.405       .  A
C997       F1015   1.358       .  S
C998        C999   1.400       .  A
C998       C1003   1.481       .  S
C999       C3152   1.395       .  A
C999       F1004   1.358       .  S
C1000      C3151   1.390       .  A
C1000      C3153   1.412       .  A
C1000      F1016   1.358       .  S
C1001      C1002   1.412       .  A
C1001      C3152   1.412       .  A
C1001      C2318   1.490       .  S
C1002      F1005   1.356       .  S
C1003      C1006   1.405       .  A
C1003      C1010   1.406       .  A
C1006      C1007   1.398       .  A
C1006      F1011   1.358       .  S
C1007      C1008   1.405       .  A
C1007      F1013   1.358       .  S
C1008      C1009   1.405       .  A
C1009      C1010   1.403       .  A
C1009      F1012   1.357       .  S
C1010      F1014   1.358       .  S
C1017      C1018   1.405       .  A
C1017      C3174   1.396       .  A
C1017      F1035   1.358       .  S
C1018      C1019   1.409       .  A
C1018      C1023   1.490       .  S
C1019      C1020   1.408       .  A
C1019      F1024   1.358       .  S
C1020      C1021   1.411       .  A
C1020      F1036   1.357       .  S
C1021      C3174   1.408       .  A
C1021      C2348   1.490       .  S
C1022      C3169   1.395       .  A
C1022      C3173   1.410       .  A
C1022      F1025   1.358       .  S
C1023      C1026   1.405       .  A
C1023      C1030   1.410       .  A
C1026      C1027   1.397       .  A
C1026      F1031   1.358       .  S
C1027      C1028   1.409       .  A
C1027      F1033   1.358       .  S
C1028      C1029   1.408       .  A
C1029      C1030   1.406       .  A
C1029      F1032   1.358       .  S
C1030      F1034   1.358       .  S
C1037      C1038   1.405       .  A
C1037      C1042   1.396       .  A
C1037      F1055   1.358       .  S
C1038      C1039   1.405       .  A
C1038      C1043   1.481       .  S
C1039      C1040   1.398       .  A
C1039      F1044   1.358       .  S
C1040      C1041   1.408       .  A
C1040      F1056   1.358       .  S
C1041      C1042   1.408       .  A
C1042      F1045   1.359       .  S
C1043      C1046   1.406       .  A
C1043      C1050   1.408       .  A
C1046      C1047   1.400       .  A
C1046      F1051   1.358       .  S
C1047      C1048   1.405       .  A
C1047      F1053   1.357       .  S
C1048      C1049   1.402       .  A
C1049      C1050   1.396       .  A
C1049      F1052   1.358       .  S
C1050      F1054   1.358       .  S
C1057      C1058   1.405       .  A
C1057      C1062   1.402       .  A
C1057      F1075   1.358       .  S
C1058      C1059   1.405       .  A
C1058      C1063   1.485       .  S
C1059      C1060   1.400       .  A
C1059      F1064   1.358       .  S
C1060      C1061   1.409       .  A
C1060      F1076   1.358       .  S
C1061      C1062   1.412       .  A
C1062      F1065   1.358       .  S
C1063      C1066   1.408       .  A
C1063      C1070   1.408       .  A
C1066      C1067   1.402       .  A
C1066      F1071   1.358       .  S
C1067      C1068   1.405       .  A
C1067      F1073   1.358       .  S
C1068      C1069   1.401       .  A
C1069      C1070   1.397       .  A
C1069      F1072   1.358       .  S
C1070      F1074   1.358       .  S
N1077      C1082   1.349       .  A
N1077      C1081   1.354       .  A
N1077      H1109   1.039       .  S
N1078      C1085   1.353       .  A
N1078      C1086   1.349       .  A
N1079      C1084   1.357       .  A
N1079      C1083   1.352       .  A
N1079      H1110   1.039       .  S
N1080      C1087   1.351       .  A
N1080      C1088   1.353       .  A
C1081      C1089   1.385       .  A
C1081      C1097   1.411       .  A
C1082      C1098   1.413       .  A
C1082      C1090   1.388       .  A
C1083      C1091   1.388       .  A
C1083      C1100   1.417       .  A
C1084      C1099   1.419       .  A
C1084      C1092   1.386       .  A
C1085      C1097   1.410       .  A
C1085      C1093   1.384       .  A
C1086      C1100   1.414       .  A
C1086      C1094   1.388       .  A
C1087      C1095   1.386       .  A
C1087      C1098   1.413       .  A
C1088      C1096   1.386       .  A
C1088      C1099   1.415       .  A
C1089      C1090   1.375       .  A
C1089      H1101   1.082       .  S
C1090      H1102   1.082       .  S
C1091      C1092   1.378       .  A
C1091      H1103   1.082       .  S
C1092      H1104   1.082       .  S
C1093      C1094   1.372       .  A
C1093      H1105   1.082       .  S
C1094      H1106   1.082       .  S
C1095      C1096   1.373       .  A
C1095      H1107   1.082       .  S
C1096      H1108   1.082       .  S
C1097      C2124   1.488       .  S
C1098      C2144   1.479       .  S
C1099      C2104   1.499       .  S
C1100      C2084   1.483       .  S
N1111      C1116   1.352       .  A
N1111      C1115   1.354       .  A
N1111      H1143   1.036       .  S
N1112      C1119   1.355       .  A
N1112      C1120   1.352       .  A
N1113      C1118   1.357       .  A
N1113      C1117   1.356       .  A
N1113      H1144   1.037       .  S
N1114      C1121   1.353       .  A
N1114      C1122   1.353       .  A
C1115      C1123   1.386       .  A
C1115      C1131   1.415       .  A
C1116      C1132   1.415       .  A
C1116      C1124   1.388       .  A
C1117      C1125   1.388       .  A
C1117      C1134   1.422       .  A
C1118      C1133   1.422       .  A
C1118      C1126   1.387       .  A
C1119      C1131   1.415       .  A
C1119      C1127   1.384       .  A
C1120      C1134   1.420       .  A
C1120      C1128   1.390       .  A
C1121      C1129   1.385       .  A
C1121      C1132   1.415       .  A
C1122      C1130   1.388       .  A
C1122      C1133   1.418       .  A
C1123      C1124   1.376       .  A
C1123      H1135   1.082       .  S
C1124      H1136   1.082       .  S
C1125      C1126   1.379       .  A
C1125      H1137   1.082       .  S
C1126      H1138   1.082       .  S
C1127      C1128   1.370       .  A
C1127      H1139   1.082       .  S
C1128      H1140   1.081       .  S
C1129      C1130   1.371       .  A
C1129      H1141   1.082       .  S
C1130      H1142   1.082       .  S
C1131      C2017   1.492       .  S
C1132      C1997   1.485       .  S
C1133      C2044   1.496       .  S
C1134      C2057   1.490       .  S
O1145      C1153   1.270       .  A
O1145     Co1165   2.007       .  S
O1146      C1154   1.249       .  A
O1146     Co1166   1.977       .  S
O1147      C1155   1.267       .  A
O1147     Co1167   1.986       .  S
O1148      C1156   1.255       .  A
O1149      C1155   1.268       .  A
O1149     Co1166   1.999       .  S
O1150      C1156   1.249       .  A
O1150     Co1165   1.970       .  S
O1151      C1154   1.255       .  A
O1151     Co1168   2.001       .  S
O1152      C1153   1.264       .  A
C1153      C2137   1.476       .  S
C1154      C1917   1.496       .  S
C1155      C2117   1.487       .  S
C1156      C1937   1.492       .  S
O1157      C1170   1.268       .  A
O1157     Co1165   1.872       .  S
O1158      C1171   1.258       .  A
O1158     Co1166   1.996       .  S
O1159      C1172   1.265       .  A
O1160      C1173   1.304       .  A
O1160     Co1168   2.095       .  S
O1161      C1173   1.265       .  A
O1161     Co1166   1.865       .  S
O1162      C1172   1.258       .  A
O1162     Co1165   1.986       .  S
O1163      C1170   1.302       .  A
O1164      C1171   1.265       .  A
O1164     Co1167   2.011       .  S
Co1166     O1169   1.913       .  S
Co1167     O1169   2.106       .  S
Co1168     O1169   2.266       .  S
C1170      C1977   1.477       .  S
C1171      C2037   1.493       .  S
C1172      C2064   1.487       .  S
C1173      C1957   1.476       .  S
N1174      C1179   1.354       .  A
N1174      C1178   1.356       .  A
N1174      H1206   1.036       .  S
N1175      C1182   1.352       .  A
N1175      C1183   1.351       .  A
N1176      C1181   1.353       .  A
N1176      C1180   1.352       .  A
N1176      H1207   1.038       .  S
N1177      C1184   1.352       .  A
N1177      C1185   1.352       .  A
C1178      C1186   1.386       .  A
C1178      C1194   1.418       .  A
C1179      C1195   1.418       .  A
C1179      C1187   1.387       .  A
C1180      C1188   1.387       .  A
C1180      C1197   1.412       .  A
C1181      C1196   1.415       .  A
C1181      C1189   1.388       .  A
C1182      C1194   1.415       .  A
C1182      C1190   1.387       .  A
C1183      C1197   1.412       .  A
C1183      C1191   1.386       .  A
C1184      C1192   1.387       .  A
C1184      C1195   1.416       .  A
C1185      C1193   1.385       .  A
C1185      C1196   1.413       .  A
C1186      C1187   1.377       .  A
C1186      H1198   1.082       .  S
C1187      H1199   1.082       .  S
C1188      C1189   1.371       .  A
C1188      H1200   1.082       .  S
C1189      H1201   1.082       .  S
C1190      C1191   1.371       .  A
C1190      H1202   1.082       .  S
C1191      H1203   1.082       .  S
C1192      C1193   1.371       .  A
C1192      H1204   1.082       .  S
C1193      H1205   1.082       .  S
C1194      C1924   1.490       .  S
C1195      C1944   1.488       .  S
C1196      C1897   1.486       .  S
C1197      C1884   1.478       .  S
N1208      C1213   1.352       .  A
N1208      C1212   1.352       .  A
N1208      H1240   1.041       .  S
N1209      C1216   1.349       .  A
N1209      C1217   1.349       .  A
N1210      C1215   1.351       .  A
N1210      C1214   1.351       .  A
N1210      H1241   1.038       .  S
N1211      C1218   1.349       .  A
N1211      C1219   1.349       .  A
C1212      C1220   1.387       .  A
C1212      C1228   1.412       .  A
C1213      C1229   1.411       .  A
C1213      C1221   1.386       .  A
C1214      C1222   1.387       .  A
C1214      C1231   1.411       .  A
C1215      C1230   1.412       .  A
C1215      C1223   1.387       .  A
C1216      C1228   1.409       .  A
C1216      C1224   1.386       .  A
C1217      C1231   1.410       .  A
C1217      C1225   1.387       .  A
C1218      C1226   1.386       .  A
C1218      C1229   1.408       .  A
C1219      C1227   1.386       .  A
C1219      C1230   1.409       .  A
C1220      C1221   1.373       .  A
C1220      H1232   1.082       .  S
C1221      H1233   1.082       .  S
C1222      C1223   1.377       .  A
C1222      H1234   1.082       .  S
C1223      H1235   1.082       .  S
C1224      C1225   1.374       .  A
C1224      H1236   1.082       .  S
C1225      H1237   1.082       .  S
C1226      C1227   1.373       .  A
C1226      H1238   1.082       .  S
C1227      H1239   1.082       .  S
C1228      C1837   1.485       .  S
C1229      C1857   1.483       .  S
C1230      C1984   1.479       .  S
C1231      C1964   1.478       .  S
C1242      N1260   1.350       .  A
C1242      C3431   1.463       .  S
C1242      C4229   1.480       .  S
N1243      N1260   1.324       .  A
N1243      N1265   1.322       .  A
N1243     Co1280   2.097       .  S
C1244      N1269   1.344       .  A
C1244      H1289   1.081       .  S
C1244      C1282   1.468       .  S
H1245      C1286   1.081       .  S
C1246      N1270   1.348       .  A
C1246      H1275   1.081       .  S
C1246      C1250   1.464       .  S
Co1247     N1255   2.099   1_545  S
Co1247     N1263   2.068   1_545  S
Co1247    Cl1291   2.451       .  S
N1248      C1286   1.332       .  A
N1248      N1255   1.319       .  A
N1248     Co1249   2.069       .  S
Co1249     N1252   2.077       .  S
Co1249     N1269   2.085       .  S
Co1249     N1256   2.081       .  S
Co1249    Cl1291   2.446   1_565  S
C1250      N1288   1.344       .  A
C1250      C2024   1.469       .  S
N1251      N1258   1.321       .  A
N1251      N1281   1.328       .  A
N1251     Co1284   2.090       .  S
N1252      N1270   1.320       .  A
N1252      N1288   1.320       .  A
N1253      C3434   1.345       .  A
N1253      N3415   1.318       .  A
H1254      C1279   1.081       .  S
N1255      N3428   1.330       .  A
N1256      N1274   1.319       .  A
N1256      N1261   1.327       .  A
C1257      N1261   1.352       .  A
C1257      C1285   1.457       .  S
C1257      C1784   1.474       .  S
N1258      C1273   1.338       .  A
N1258     Co1280   2.083       .  S
C1259      N3439   1.334       .  A
C1259      H1293   1.080       .  S
C1259      C3414   1.458       .  S
C1262      N1283   1.358       .  A
C1262      C3411   1.453   1_455  S
C1262      C3949   1.484   1_455  S
N1263      N3405   1.318       .  A
N1263      N1269   1.318       .  A
N1264      C1290   1.347       .  A
N1264      N1266   1.320       .  A
N1264     Co1280   2.097       .  S
N1265      C3431   1.344       .  A
N1266      N1294   1.319       .  A
N1266     Co1284   2.080       .  S
H1267      C1290   1.080       .  S
H1268      C1285   1.081       .  S
N1271      N1283   1.330       .  A
N1271      N1287   1.318       .  A
N1271     Co1280   2.101       .  S
C1272      N3428   1.357       .  A
C1272      C1286   1.453       .  S
C1272      C4249   1.481       .  S
C1273      H1277   1.082       .  S
C1273      C1292   1.455       .  S
N1274      C1285   1.335       .  A
N1276      C3424   1.356       .  A
N1276      N3407   1.331       .  A
C1278      N1294   1.347       .  A
C1278      C1290   1.473       .  S
C1278      C1817   1.489       .  S
C1279      N3417   1.345       .  A
C1279      C3394   1.469       .  S
N1281      C1292   1.352       .  A
C1282      N3405   1.345       .  A
C1282      C3916   1.480   1_455  S
N1287      C3411   1.331   1_455  A
C1292      C2004   1.474       .  S
O1295      C1303   1.270   1_655  A
O1295     Co1315   1.864   1_656  S
O1296      C1304   1.268       .  A
O1296     Co1316   1.990   1_554  S
O1297      C1305   1.291       .  A
O1297     Co1317   1.983       .  S
O1298      C1306   1.264       .  A
O1298     Co1318   2.002       .  S
O1299      C1305   1.287       .  A
O1299     Co1316   1.964       .  S
O1300      C1306   1.261       .  A
O1300     Co1315   1.984       .  S
O1301      C1304   1.268       .  A
O1301     Co1318   1.991       .  S
O1302      C1303   1.304       .  A
O1302     Co1317   2.107       .  S
C1303      C3889   1.486   1_455  S
C1304      C1604   1.490       .  S
C1305      C1717   1.481       .  S
C1306      C3769   1.496       .  S
O1307      C1320   1.278       .  A
O1307     Co1315   2.002       .  S
O1308      C1321   1.248       .  A
O1308     Co1316   1.966       .  S
O1309      C1322   1.295       .  A
O1309     Co1317   2.081       .  S
O1310      C1323   1.271       .  A
O1310     Co1318   1.985       .  S
O1311      C1323   1.273       .  A
O1311     Co1316   1.999   1_554  S
O1312      C1322   1.257       .  A
O1312     Co1315   1.948   1_556  S
O1313      C1320   1.274       .  A
O1313     Co1318   1.976       .  S
O1314      C1321   1.276       .  A
O1314     Co1317   2.048       .  S
Co1315     O1319   1.877       .  S
Co1316     O1319   1.989   1_556  S
Co1317     O1319   2.060   1_556  S
Co1318     O1319   2.021       .  S
C1320      C3816   1.484   1_455  S
C1321      C1677   1.487       .  S
C1322      C3849   1.487       .  S
C1323      C1637   1.487       .  S
N1324      C1329   1.354       .  A
N1324      C1328   1.350       .  A
N1324      H1356   1.041       .  S
N1325      C1332   1.354       .  A
N1325      C1333   1.355       .  A
N1326      C1331   1.352       .  A
N1326      C1330   1.352       .  A
N1326      H1357   1.042       .  S
N1327      C1334   1.351       .  A
N1327      C1335   1.350       .  A
C1328      C1336   1.389       .  A
C1328      C1344   1.416       .  A
C1329      C1345   1.413       .  A
C1329      C1337   1.385       .  A
C1330      C1338   1.389       .  A
C1330      C1347   1.417       .  A
C1331      C1346   1.411       .  A
C1331      C1339   1.385       .  A
C1332      C1344   1.419       .  A
C1332      C1340   1.386       .  A
C1333      C1347   1.420       .  A
C1333      C1341   1.386       .  A
C1334      C1342   1.386       .  A
C1334      C1345   1.412       .  A
C1335      C1343   1.386       .  A
C1335      C1346   1.410       .  A
C1336      C1337   1.376       .  A
C1336      H1348   1.083       .  S
C1337      H1349   1.082       .  S
C1338      C1339   1.374       .  A
C1338      H1350   1.082       .  S
C1339      H1351   1.082       .  S
C1340      C1341   1.380       .  A
C1340      H1352   1.082       .  S
C1341      H1353   1.082       .  S
C1342      C1343   1.374       .  A
C1342      H1354   1.082       .  S
C1343      H1355   1.082       .  S
C1344      C1684   1.490       .  S
C1345      C1564   1.487       .  S
C1346      C1577   1.483       .  S
C1347      C1704   1.498       .  S
N1358      C1363   1.353       .  A
N1358      C1362   1.348       .  A
N1358      H1390   1.038       .  S
N1359      C1366   1.350       .  A
N1359      C1367   1.353       .  A
N1360      C1365   1.349       .  A
N1360      C1364   1.353       .  A
N1360      H1391   1.037       .  S
N1361      C1368   1.352       .  A
N1361      C1369   1.349       .  A
C1362      C1370   1.389       .  A
C1362      C1378   1.411       .  A
C1363      C1379   1.411       .  A
C1363      C1371   1.385       .  A
C1364      C1372   1.386       .  A
C1364      C1381   1.414       .  A
C1365      C1380   1.412       .  A
C1365      C1373   1.388       .  A
C1366      C1378   1.412       .  A
C1366      C1374   1.387       .  A
C1367      C1381   1.415       .  A
C1367      C1375   1.386       .  A
C1368      C1376   1.385       .  A
C1368      C1379   1.410       .  A
C1369      C1377   1.388       .  A
C1369      C1380   1.411       .  A
C1370      C1371   1.376       .  A
C1370      H1382   1.081       .  S
C1371      H1383   1.082       .  S
C1372      C1373   1.377       .  A
C1372      H1384   1.082       .  S
C1373      H1385   1.082       .  S
C1374      C1375   1.372       .  A
C1374      H1386   1.082       .  S
C1375      H1387   1.082       .  S
C1376      C1377   1.370       .  A
C1376      H1388   1.082       .  S
C1377      H1389   1.082       .  S
C1378      C1724   1.475       .  S
C1379      C1744   1.487       .  S
C1380      C1544   1.473       .  S
C1381      C1517   1.494       .  S
C1392      N3562   1.354   1_455  A
C1392      C1429   1.454       .  S
C1392      C4056   1.474   1_455  S
N1393      N3562   1.327   1_455  A
N1393      N1415   1.318       .  A
N1393     Co1430   2.089       .  S
C1394      N1419   1.344       .  A
C1394      H1439   1.081       .  S
C1394      C1432   1.462       .  S
H1395      C1436   1.081       .  S
C1396      N1420   1.342       .  A
C1396      H1425   1.081       .  S
C1396      C1400   1.468       .  S
Co1397     N1415   2.070       .  S
Co1397     N1405   2.066       .  S
Co1397    Cl1441   2.430       .  S
N1398      C1436   1.345       .  A
N1398      N1405   1.319       .  A
N1398     Co1399   2.085       .  S
Co1399     N1402   2.081       .  S
Co1399    Cl1441   2.463       .  S
C1400      N1438   1.350       .  A
C1400      C1557   1.488       .  S
N1401      N1408   1.319       .  A
N1401      N1431   1.324       .  A
N1401     Co1434   2.082       .  S
N1402      N1420   1.319       .  A
N1402      N1438   1.323       .  A
N1403      C1432   1.345       .  A
N1403      N1413   1.320       .  A
H1404      C1429   1.082       .  S
N1405      N1426   1.318       .  A
N1406      N1424   1.318       .  A
N1406      N1411   1.324       .  A
C1407      N1411   1.354       .  A
C1407      C1435   1.468       .  S
C1407      C1524   1.492       .  S
N1408      C3575   1.339   1_455  A
N1408     Co1430   2.090       .  S
C1409      N1437   1.340       .  A
C1409      H1443   1.082       .  S
C1409      C1412   1.460       .  S
N1410      C3544   1.353       .  A
N1410      N3545   1.327       .  A
C1412      N3585   1.347   1_455  A
C1412      C4029   1.467   1_455  S
N1413      N1419   1.321       .  A
N1414      C3592   1.339   1_455  A
N1414      N1416   1.317       .  A
N1415      C1429   1.335       .  A
N1416      N1444   1.323       .  A
H1417      C1440   1.081       .  S
H1418      C1435   1.080       .  S
N1420     Co1434   2.092       .  S
N1421      N3585   1.324   1_455  A
N1421      N1437   1.318       .  A
C1422      N1426   1.343       .  A
C1422      C1436   1.463       .  S
C1422      C1864   1.466       .  S
C1423      N3560   1.340       .  A
C1423      H1427   1.080       .  S
C1423      C1442   1.469       .  S
N1424      C1435   1.340       .  A
C1428      N3596   1.351       .  A
C1428      C1440   1.463       .  S
C1428      C1537   1.478       .  S
Co1430    Cl1441   2.460       .  S
N1431      C3594   1.351       .  A
C1432      C1844   1.469       .  S
N1433      C3564   1.347       .  A
N1433      N3573   1.323       .  A
Co1434    Cl1441   2.440       .  S
C1440      N3566   1.340       .  A
C1442      N3583   1.352       .  A
C1442      C1584   1.491       .  S
N1444      C3580   1.351       .  A
N1445      C1450   1.354       .  A
N1445      C1449   1.355       .  A
N1445      H1477   1.041       .  S
N1446      C1453   1.352       .  A
N1446      C1454   1.351       .  A
N1447      C1452   1.353       .  A
N1447      C1451   1.352       .  A
N1447      H1478   1.040       .  S
N1448      C1455   1.352       .  A
N1448      C1456   1.353       .  A
C1449      C1457   1.387       .  A
C1449      C1465   1.420       .  A
C1450      C1466   1.418       .  A
C1450      C1458   1.386       .  A
C1451      C1459   1.388       .  A
C1451      C1468   1.415       .  A
C1452      C1467   1.414       .  A
C1452      C1460   1.386       .  A
C1453      C1465   1.416       .  A
C1453      C1461   1.387       .  A
C1454      C1468   1.412       .  A
C1454      C1462   1.385       .  A
C1455      C1463   1.388       .  A
C1455      C1466   1.416       .  A
C1456      C1464   1.384       .  A
C1456      C1467   1.412       .  A
C1457      C1458   1.380       .  A
C1457      H1469   1.082       .  S
C1458      H1470   1.082       .  S
C1459      C1460   1.376       .  A
C1459      H1471   1.082       .  S
C1460      H1472   1.082       .  S
C1461      C1462   1.374       .  A
C1461      H1473   1.082       .  S
C1462      H1474   1.082       .  S
C1463      C1464   1.371       .  A
C1463      H1475   1.082       .  S
C1464      H1476   1.082       .  S
C1465      C1597   1.494       .  S
C1466      C1624   1.494       .  S
C1467      C1804   1.491       .  S
C1468      C1824   1.484       .  S
N1479      C1484   1.352       .  A
N1479      C1483   1.351       .  A
N1479      H1511   1.040       .  S
N1480      C1487   1.349       .  A
N1480      C1488   1.350       .  A
N1481      C1486   1.350       .  A
N1481      C1485   1.350       .  A
N1481      H1512   1.039       .  S
N1482      C1489   1.347       .  A
N1482      C1490   1.348       .  A
C1483      C1491   1.387       .  A
C1483      C1499   1.411       .  A
C1484      C1500   1.412       .  A
C1484      C1492   1.387       .  A
C1485      C1493   1.388       .  A
C1485      C1502   1.410       .  A
C1486      C1501   1.409       .  A
C1486      C1494   1.387       .  A
C1487      C1499   1.408       .  A
C1487      C1495   1.386       .  A
C1488      C1502   1.410       .  A
C1488      C1496   1.386       .  A
C1489      C1497   1.387       .  A
C1489      C1500   1.407       .  A
C1490      C1498   1.386       .  A
C1490      C1501   1.406       .  A
C1491      C1492   1.376       .  A
C1491      H1503   1.082       .  S
C1492      H1504   1.082       .  S
C1493      C1494   1.374       .  A
C1493      H1505   1.082       .  S
C1494      H1506   1.082       .  S
C1495      C1496   1.373       .  A
C1495      H1507   1.082       .  S
C1496      H1508   1.082       .  S
C1497      C1498   1.374       .  A
C1497      H1509   1.082       .  S
C1498      H1510   1.082       .  S
C1499      C1777   1.479       .  S
C1500      C1757   1.479       .  S
C1501      C1657   1.474       .  S
C1502      C1644   1.477       .  S
C1513      C1514   1.405       .  A
C1513      C1518   1.399       .  A
C1513      F1531   1.358       .  S
C1514      C1515   1.406       .  A
C1514      C1519   1.484       .  S
C1515      C1516   1.402       .  A
C1515      F1520   1.358       .  S
C1516      C1517   1.407       .  A
C1516      F1532   1.358       .  S
C1517      C1518   1.407       .  A
C1518      F1521   1.358       .  S
C1519      C1522   1.403       .  A
C1519      C1526   1.403       .  A
C1522      C1523   1.401       .  A
C1522      F1527   1.358       .  S
C1523      C1524   1.413       .  A
C1523      F1529   1.355       .  S
C1524      C1525   1.412       .  A
C1525      C1526   1.401       .  A
C1525      F1528   1.358       .  S
C1526      F1530   1.358       .  S
C1533      C1534   1.401       .  A
C1533      C1538   1.394       .  A
C1533      F1551   1.358       .  S
C1534      C1535   1.402       .  A
C1534      C1539   1.470       .  S
C1535      C1536   1.398       .  A
C1535      F1540   1.358       .  S
C1536      C1537   1.409       .  A
C1536      F1552   1.357       .  S
C1537      C1538   1.409       .  A
C1538      F3693   1.358       .  S
C1539      C1542   1.405       .  A
C1539      C1546   1.404       .  A
F1541      C3690   1.358   1_455  S
C1542      C1543   1.399       .  A
C1542      F1547   1.357       .  S
C1543      C1544   1.402       .  A
C1543      F1549   1.357       .  S
C1544      C1545   1.401       .  A
C1545      C1546   1.391       .  A
C1545      F1548   1.358       .  S
C1546      F1550   1.358       .  S
C1553      C1554   1.403       .  A
C1553      C1558   1.401       .  A
C1553      F1571   1.358       .  S
C1554      C1555   1.402       .  A
C1554      C1559   1.479       .  S
C1555      C1556   1.399       .  A
C1555      F1560   1.358       .  S
C1556      C1557   1.412       .  A
C1556      F1572   1.358       .  S
C1557      C1558   1.410       .  A
C1558      F1561   1.356       .  S
C1559      C1562   1.406       .  A
C1559      C1566   1.404       .  A
C1562      C1563   1.403       .  A
C1562      F1567   1.358       .  S
C1563      C1564   1.406       .  A
C1563      F1569   1.357       .  S
C1564      C1565   1.404       .  A
C1565      C1566   1.397       .  A
C1565      F1568   1.358       .  S
C1566      F1570   1.358       .  S
C1573      C1574   1.409       .  A
C1573      C1578   1.400       .  A
C1573      F1591   1.358       .  S
C1574      C1575   1.408       .  A
C1574      C1579   1.486       .  S
C1575      C1576   1.399       .  A
C1575      F1580   1.358       .  S
C1576      C1577   1.403       .  A
C1576      F1592   1.358       .  S
C1577      C1578   1.402       .  A
C1578      F1581   1.357       .  S
C1579      C1582   1.404       .  A
C1579      C1586   1.406       .  A
C1582      C1583   1.397       .  A
C1582      F1587   1.358       .  S
C1583      C1584   1.410       .  A
C1583      F1589   1.355       .  S
C1584      C1585   1.414       .  A
C1585      C1586   1.403       .  A
C1585      F3740   1.358       .  S
C1586      F1590   1.358       .  S
F1588      C3737   1.358   1_455  S
C1593      C1594   1.409       .  A
C1593      C1598   1.402       .  A
C1593      F1611   1.358       .  S
C1594      C1595   1.405       .  A
C1594      C1599   1.488       .  S
C1595      C1596   1.404       .  A
C1595      F1600   1.357       .  S
C1596      C1597   1.407       .  A
C1596      F1612   1.357       .  S
C1597      C1598   1.405       .  A
C1598      F1601   1.358       .  S
C1599      C1602   1.408       .  A
C1599      C1606   1.402       .  A
C1602      C1603   1.410       .  A
C1602      F1607   1.358       .  S
C1603      C1604   1.412       .  A
C1603      F1609   1.358       .  S
C1604      C1605   1.410       .  A
C1605      C1606   1.396       .  A
C1605      F1608   1.358       .  S
C1606      F1610   1.358       .  S
C1613      C1614   1.405       .  A
C1613      C1618   1.402       .  A
C1613      F1631   1.358       .  S
C1614      C1615   1.401       .  A
C1614      C1619   1.479       .  S
C1615      C1616   1.399       .  A
C1615      F1620   1.357       .  S
C1616      C1617   1.410       .  A
C1616      F1632   1.355       .  S
C1617      C1618   1.410       .  A
C1617      C3458   1.485       .  S
C1618      F3773   1.358       .  S
C1619      C1622   1.405       .  A
C1619      C1626   1.403       .  A
F1621      C3770   1.358       .  S
C1622      C1623   1.400       .  A
C1622      F1627   1.358       .  S
C1623      C1624   1.406       .  A
C1623      F1629   1.358       .  S
C1624      C1625   1.410       .  A
C1625      C1626   1.401       .  A
C1625      F1628   1.358       .  S
C1626      F1630   1.358       .  S
C1633      C1634   1.402       .  A
C1633      C1638   1.396       .  A
C1633      F1651   1.358       .  S
C1634      C1635   1.403       .  A
C1634      C1639   1.477       .  S
C1635      C1636   1.398       .  A
C1635      F1640   1.358       .  S
C1636      C1637   1.412       .  A
C1636      F1652   1.358       .  S
C1637      C1638   1.412       .  A
C1638      F1641   1.358       .  S
C1639      C1642   1.407       .  A
C1639      C1646   1.406       .  A
C1642      C1643   1.396       .  A
C1642      F1647   1.358       .  S
C1643      C1644   1.402       .  A
C1643      F1649   1.358       .  S
C1644      C1645   1.403       .  A
C1645      C1646   1.397       .  A
C1645      F1648   1.358       .  S
C1646      F1650   1.358       .  S
C1653      C1654   1.409       .  A
C1653      C1658   1.393       .  A
C1653      F1671   1.358       .  S
C1654      C1655   1.407       .  A
C1654      C1659   1.478       .  S
C1655      C1656   1.397       .  A
C1655      F1660   1.358       .  S
C1656      C1657   1.402       .  A
C1656      F1672   1.358       .  S
C1657      C1658   1.399       .  A
C1658      F1661   1.358       .  S
C1659      C1662   1.404       .  A
C1659      C1666   1.405       .  A
C1662      C1663   1.393       .  A
C1662      F1667   1.358       .  S
C1663      C1664   1.410       .  A
C1663      F1669   1.358       .  S
C1664      C1665   1.411       .  A
C1664      C3472   1.481       .  S
C1665      C1666   1.396       .  A
C1665      F3820   1.358       .  S
C1666      F1670   1.358       .  S
F1668      C3817   1.358   1_455  S
C1673      C1674   1.405       .  A
C1673      C1678   1.403       .  A
C1673      F1691   1.357       .  S
C1674      C1675   1.401       .  A
C1674      C1679   1.482       .  S
C1675      C1676   1.399       .  A
C1675      F1680   1.358       .  S
C1676      C1677   1.413       .  A
C1676      F1692   1.358       .  S
C1677      C1678   1.411       .  A
C1678      F1681   1.358       .  S
C1679      C1682   1.402       .  A
C1679      C1686   1.407       .  A
C1682      C1683   1.399       .  A
C1682      F1687   1.357       .  S
C1683      C1684   1.408       .  A
C1683      F1689   1.358       .  S
C1684      C1685   1.404       .  A
C1685      C1686   1.403       .  A
C1685      F1688   1.356       .  S
C1686      F1690   1.357       .  S
C1693      C1694   1.407       .  A
C1693      C1698   1.406       .  A
C1693      F1711   1.356       .  S
C1694      C1695   1.400       .  A
C1694      C1699   1.484       .  S
C1695      C1696   1.398       .  A
C1695      F1700   1.358       .  S
C1696      C1697   1.413       .  A
C1696      F1712   1.358       .  S
C1697      C1698   1.409       .  A
C1697      C3474   1.487       .  S
C1698      F3853   1.357       .  S
C1699      C1702   1.407       .  A
C1699      C1706   1.402       .  A
F1701      C3850   1.357       .  S
C1702      C1703   1.404       .  A
C1702      F1707   1.357       .  S
C1703      C1704   1.406       .  A
C1703      F1709   1.357       .  S
C1704      C1705   1.411       .  A
C1705      C1706   1.401       .  A
C1705      F1708   1.358       .  S
C1706      F1710   1.358       .  S
C1713      C1714   1.403       .  A
C1713      C1718   1.396       .  A
C1713      F1731   1.358       .  S
C1714      C1715   1.403       .  A
C1714      C1719   1.475       .  S
C1715      C1716   1.397       .  A
C1715      F1720   1.358       .  S
C1716      C1717   1.410       .  A
C1716      F1732   1.358       .  S
C1717      C1718   1.411       .  A
C1718      F1721   1.358       .  S
C1719      C1722   1.404       .  A
C1719      C1726   1.408       .  A
C1722      C1723   1.395       .  A
C1722      F1727   1.358       .  S
C1723      C1724   1.404       .  A
C1723      F1729   1.358       .  S
C1724      C1725   1.400       .  A
C1725      C1726   1.394       .  A
C1725      F1728   1.358       .  S
C1726      F1730   1.357       .  S
C1733      C1734   1.409       .  A
C1733      C1738   1.403       .  A
C1733      F1751   1.358       .  S
C1734      C1735   1.405       .  A
C1734      C1739   1.489       .  S
C1735      C1736   1.395       .  A
C1735      F1740   1.358       .  S
C1736      C1737   1.411       .  A
C1736      F1752   1.358       .  S
C1737      C1738   1.411       .  A
C1737      C3455   1.489       .  S
C1738      F1741   1.358       .  S
C1739      C1742   1.409       .  A
C1739      C1746   1.408       .  A
C1742      C1743   1.400       .  A
C1742      F1747   1.358       .  S
C1743      C1744   1.405       .  A
C1743      F1749   1.358       .  S
C1744      C1745   1.403       .  A
C1745      C1746   1.397       .  A
C1745      F1748   1.358       .  S
C1746      F1750   1.355       .  S
C1753      C1754   1.406       .  A
C1753      C1758   1.395       .  A
C1753      F1771   1.358       .  S
C1754      C1755   1.407       .  A
C1754      C1759   1.477       .  S
C1755      C1756   1.396       .  A
C1755      F1760   1.358       .  S
C1756      C1757   1.402       .  A
C1756      F1772   1.358       .  S
C1757      C1758   1.404       .  A
C1758      F1761   1.358       .  S
C1759      C1762   1.403       .  A
C1759      C1766   1.407       .  A
C1762      C1763   1.393       .  A
C1762      F1767   1.358       .  S
C1763      C1764   1.408       .  A
C1763      F1769   1.358       .  S
C1764      C1765   1.406       .  A
C1764      C3434   1.474       .  S
C1765      C1766   1.399       .  A
C1765      F1768   1.357       .  S
C1766      F1770   1.358       .  S
C1773      C1774   1.404       .  A
C1773      C1778   1.396       .  A
C1773      F1791   1.358       .  S
C1774      C1775   1.404       .  A
C1774      C1779   1.472       .  S
C1775      C1776   1.398       .  A
C1775      F1780   1.358       .  S
C1776      C1777   1.404       .  A
C1776      F1792   1.358       .  S
C1777      C1778   1.403       .  A
C1778      F1781   1.358       .  S
C1779      C1782   1.405       .  A
C1779      C1786   1.401       .  A
C1782      C1783   1.402       .  A
C1782      F1787   1.358       .  S
C1783      C1784   1.406       .  A
C1783      F1789   1.358       .  S
C1784      C1785   1.407       .  A
C1785      C1786   1.393       .  A
C1785      F1788   1.357       .  S
C1786      F1790   1.358       .  S
C1793      C1794   1.407       .  A
C1793      C1798   1.404       .  A
C1793      F1811   1.358       .  S
C1794      C1795   1.402       .  A
C1794      C1799   1.483       .  S
C1795      C1796   1.394       .  A
C1795      F1800   1.358       .  S
C1796      C1797   1.411       .  A
C1796      F1812   1.356       .  S
C1797      C1798   1.410       .  A
C1797      C3414   1.486       .  S
C1798      F3953   1.358       .  S
C1799      C1802   1.407       .  A
C1799      C1806   1.406       .  A
F1801      C3950   1.357   1_455  S
C1802      C1803   1.398       .  A
C1802      F1807   1.358       .  S
C1803      C1804   1.406       .  A
C1803      F1809   1.358       .  S
C1804      C1805   1.406       .  A
C1805      C1806   1.401       .  A
C1805      F1808   1.357       .  S
C1806      F1810   1.358       .  S
C1813      C1814   1.407       .  A
C1813      C1818   1.404       .  A
C1813      F1831   1.358       .  S
C1814      C1815   1.403       .  A
C1814      C1819   1.485       .  S
C1815      C1816   1.395       .  A
C1815      F1820   1.358       .  S
C1816      C1817   1.412       .  A
C1816      F1832   1.358       .  S
C1817      C1818   1.410       .  A
C1818      F1821   1.356       .  S
C1819      C1822   1.408       .  A
C1819      C1826   1.408       .  A
C1822      C1823   1.401       .  A
C1822      F1827   1.358       .  S
C1823      C1824   1.403       .  A
C1823      F1829   1.357       .  S
C1824      C1825   1.403       .  A
C1825      C1826   1.397       .  A
C1825      F1828   1.358       .  S
C1826      F1830   1.358       .  S
C1833      C1834   1.407       .  A
C1833      C1838   1.395       .  A
C1833      F1851   1.358       .  S
C1834      C1835   1.406       .  A
C1834      C1839   1.480       .  S
C1835      C1836   1.398       .  A
C1835      F1840   1.358       .  S
C1836      C1837   1.406       .  A
C1836      F1852   1.358       .  S
C1837      C1838   1.404       .  A
C1838      F1841   1.358       .  S
C1839      C1842   1.407       .  A
C1839      C1846   1.405       .  A
C1842      C1843   1.401       .  A
C1842      F1847   1.358       .  S
C1843      C1844   1.405       .  A
C1843      F1849   1.357       .  S
C1844      C1845   1.404       .  A
C1845      C1846   1.393       .  A
C1845      F1848   1.358       .  S
C1846      F1850   1.358       .  S
C1853      C1854   1.406       .  A
C1853      C1858   1.393       .  A
C1853      F1871   1.358       .  S
C1854      C1855   1.404       .  A
C1854      C1859   1.475       .  S
C1855      C1856   1.399       .  A
C1855      F1860   1.358       .  S
C1856      C1857   1.407       .  A
C1856      F1872   1.358       .  S
C1857      C1858   1.403       .  A
C1858      F1861   1.358       .  S
C1859      C1862   1.404       .  A
C1859      C1866   1.406       .  A
C1862      C1863   1.392       .  A
C1862      F1867   1.358       .  S
C1863      C1864   1.403       .  A
C1863      F1869   1.358       .  S
C1864      C1865   1.404       .  A
C1865      C1866   1.401       .  A
C1865      F1868   1.357       .  S
C1866      F1870   1.357       .  S
C1873      C1874   1.405       .  A
C1873      C1878   1.392       .  A
C1873      F1891   1.358       .  S
C1874      C1875   1.406       .  A
C1874      C1879   1.477       .  S
C1875      C1876   1.399       .  A
C1875      F1880   1.358       .  S
C1876      C1877   1.405       .  A
C1876      F1892   1.358       .  S
C1877      C1878   1.403       .  A
C1877      C3564   1.468       .  S
C1878      F4033   1.358       .  S
C1879      C1882   1.407       .  A
C1879      C1886   1.406       .  A
F1881      C4030   1.358       .  S
C1882      C1883   1.400       .  A
C1882      F1887   1.358       .  S
C1883      C1884   1.404       .  A
C1883      F1889   1.358       .  S
C1884      C1885   1.400       .  A
C1885      C1886   1.391       .  A
C1885      F1888   1.358       .  S
C1886      F1890   1.358       .  S
C1893      C1894   1.408       .  A
C1893      C1898   1.395       .  A
C1893      F1911   1.358       .  S
C1894      C1895   1.407       .  A
C1894      C1899   1.482       .  S
C1895      C1896   1.400       .  A
C1895      F1900   1.358       .  S
C1896      C1897   1.406       .  A
C1896      F1912   1.358       .  S
C1897      C1898   1.403       .  A
C1898      F1901   1.358       .  S
C1899      C1902   1.408       .  A
C1899      C1906   1.405       .  A
C1902      C1903   1.403       .  A
C1902      F1907   1.358       .  S
C1903      C1904   1.407       .  A
C1903      F1909   1.358       .  S
C1904      C4057   1.405       .  A
C1904      C3544   1.475       .  S
C1905      C4056   1.406   1_455  A
C1905      C4058   1.394   1_455  A
C1905      F1908   1.357       .  S
C1906      C4057   1.392       .  A
C1906      F4062   1.358       .  S
F1910      C4058   1.358   1_455  S
C1913      C1914   1.405       .  A
C1913      C1918   1.406       .  A
C1913      F1931   1.358       .  S
C1914      C1915   1.404       .  A
C1914      C1919   1.488       .  S
C1915      C1916   1.401       .  A
C1915      F1920   1.358       .  S
C1916      C1917   1.414       .  A
C1916      F1932   1.358       .  S
C1917      C1918   1.413       .  A
C1918      F1921   1.357       .  S
C1919      C1922   1.408       .  A
C1919      C1926   1.408       .  A
C1922      C1923   1.399       .  A
C1922      F1927   1.358       .  S
C1923      C1924   1.402       .  A
C1923      F1929   1.358       .  S
C1924      C1925   1.407       .  A
C1925      C1926   1.405       .  A
C1925      F1928   1.358       .  S
C1926      F1930   1.357       .  S
C1933      C1934   1.401       .  A
C1933      C1938   1.398       .  A
C1933      F1951   1.358       .  S
C1934      C1935   1.405       .  A
C1934      C1939   1.482       .  S
C1935      C1936   1.404       .  A
C1935      F1940   1.358       .  S
C1936      C1937   1.413       .  A
C1936      F1952   1.358       .  S
C1937      C1938   1.414       .  A
C1938      F1941   1.358       .  S
C1939      C1942   1.408       .  A
C1939      C1946   1.404       .  A
C1942      C1943   1.401       .  A
C1942      F1947   1.357       .  S
C1943      C1944   1.404       .  A
C1943      F1949   1.358       .  S
C1944      C1945   1.405       .  A
C1945      C1946   1.399       .  A
C1945      F1948   1.357       .  S
C1946      F1950   1.357       .  S
C1953      C1954   1.405       .  A
C1953      C1958   1.399       .  A
C1953      F1971   1.358       .  S
C1954      C1955   1.401       .  A
C1954      C1959   1.474       .  S
C1955      C1956   1.394       .  A
C1955      F1960   1.358       .  S
C1956      C1957   1.412       .  A
C1956      F1972   1.358       .  S
C1957      C1958   1.406       .  A
C1958      F1961   1.358       .  S
C1959      C1962   1.407       .  A
C1959      C1966   1.404       .  A
C1962      C1963   1.395       .  A
C1962      F1967   1.358       .  S
C1963      C1964   1.402       .  A
C1963      F1969   1.358       .  S
C1964      C1965   1.404       .  A
C1965      C1966   1.399       .  A
C1965      F1968   1.357       .  S
C1966      F1970   1.357       .  S
C1973      C1974   1.402       .  A
C1973      C1978   1.395       .  A
C1973      F1991   1.358       .  S
C1974      C1975   1.404       .  A
C1974      C1979   1.475       .  S
C1975      C1976   1.401       .  A
C1975      F1980   1.358       .  S
C1976      C1977   1.409       .  A
C1976      F1992   1.358       .  S
C1977      C1978   1.409       .  A
C1978      F1981   1.358       .  S
C1979      C1982   1.405       .  A
C1979      C1986   1.405       .  A
C1982      C1983   1.393       .  A
C1982      F1987   1.358       .  S
C1983      C1984   1.401       .  A
C1983      F1989   1.358       .  S
C1984      C1985   1.406       .  A
C1985      C1986   1.401       .  A
C1985      F1988   1.357       .  S
C1986      F1990   1.357       .  S
C1993      C1994   1.405       .  A
C1993      C1998   1.403       .  A
C1993      F2011   1.357       .  S
C1994      C1995   1.404       .  A
C1994      C1999   1.476       .  S
C1995      C1996   1.396       .  A
C1995      F2000   1.358       .  S
C1996      C1997   1.402       .  A
C1996      F2012   1.358       .  S
C1997      C1998   1.406       .  A
C1998      F2001   1.358       .  S
C1999      C2002   1.405       .  A
C1999      C2006   1.403       .  A
C2002      C2003   1.402       .  A
C2002      F2007   1.357       .  S
C2003      C2004   1.405       .  A
C2003      F2009   1.358       .  S
C2004      C2005   1.406       .  A
C2005      C2006   1.397       .  A
C2005      F2008   1.358       .  S
C2006      F2010   1.358       .  S
C2013      C2014   1.408       .  A
C2013      C2018   1.403       .  A
C2013      F2031   1.358       .  S
C2014      C2015   1.409       .  A
C2014      C2019   1.489       .  S
C2015      C2016   1.399       .  A
C2015      F2020   1.358       .  S
C2016      C2017   1.404       .  A
C2016      F2032   1.358       .  S
C2017      C2018   1.407       .  A
C2018      F2021   1.357       .  S
C2019      C2022   1.410       .  A
C2019      C2026   1.408       .  A
C2022      C2023   1.404       .  A
C2022      F2027   1.358       .  S
C2023      C2024   1.404       .  A
C2023      F2029   1.358       .  S
C2024      C2025   1.401       .  A
C2025      C2026   1.397       .  A
C2025      F2028   1.358       .  S
C2026      F2030   1.358       .  S
C2033      C2034   1.406       .  A
C2033      C2038   1.399       .  A
C2033      F2051   1.358       .  S
C2034      C2035   1.407       .  A
C2034      C2039   1.492       .  S
C2035      C2036   1.406       .  A
C2035      F2040   1.358       .  S
C2036      C2037   1.412       .  A
C2036      F2052   1.355       .  S
C2037      C2038   1.409       .  A
C2038      F2041   1.358       .  S
C2039      C2042   1.408       .  A
C2039      C2046   1.409       .  A
C2042      C2043   1.406       .  A
C2042      F2047   1.357       .  S
C2043      C2044   1.408       .  A
C2043      F2049   1.357       .  S
C2044      C2045   1.404       .  A
C2045      C2046   1.400       .  A
C2045      F2048   1.358       .  S
C2046      F2050   1.358       .  S
C2053      C2054   1.407       .  A
C2053      C2058   1.403       .  A
C2053      F2071   1.357       .  S
C2054      C2055   1.409       .  A
C2054      C2059   1.487       .  S
C2055      C2056   1.398       .  A
C2055      F2060   1.358       .  S
C2056      C2057   1.404       .  A
C2056      F2072   1.358       .  S
C2057      C2058   1.407       .  A
C2058      F2061   1.357       .  S
C2059      C2062   1.406       .  A
C2059      C2066   1.406       .  A
C2062      C2063   1.402       .  A
C2062      F2067   1.357       .  S
C2063      C2064   1.411       .  A
C2063      F2069   1.356       .  S
C2064      C2065   1.409       .  A
C2065      C2066   1.397       .  A
C2065      F2068   1.358       .  S
C2066      F2070   1.358       .  S
C2073      C2074   1.403       .  A
C2073      C2078   1.402       .  A
C2073      F2091   1.358       .  S
C2074      C2075   1.398       .  A
C2074      C2079   1.472       .  S
C2075      C4228   1.394       .  A
C2075      F2080   1.358       .  S
C2076      C4227   1.397       .  A
C2076      C4229   1.406       .  A
C2076      F2092   1.358       .  S
C2077      C4228   1.412       .  A
C2077      C2078   1.411       .  A
C2077      C3394   1.485       .  S
C2078      F2081   1.356       .  S
C2079      C2082   1.404       .  A
C2079      C2086   1.403       .  A
C2082      C2083   1.397       .  A
C2082      F2087   1.358       .  S
C2083      C2084   1.406       .  A
C2083      F2089   1.358       .  S
C2084      C2085   1.404       .  A
C2085      C2086   1.397       .  A
C2085      F2088   1.358       .  S
C2086      F2090   1.358       .  S
C2093      C2094   1.407       .  A
C2093      C4250   1.396       .  A
C2093      F2111   1.358       .  S
C2094      C2095   1.412       .  A
C2094      C2099   1.493       .  S
C2095      C2096   1.406       .  A
C2095      F2100   1.357       .  S
C2096      C2097   1.406       .  A
C2096      F2112   1.358       .  S
C2097      C4250   1.407       .  A
C2097      C3424   1.482       .  S
C2098      C4245   1.393       .  A
C2098      C4249   1.407       .  A
C2098      F2101   1.357       .  S
C2099      C2102   1.408       .  A
C2099      C2106   1.409       .  A
C2102      C2103   1.400       .  A
C2102      F2107   1.358       .  S
C2103      C2104   1.407       .  A
C2103      F2109   1.358       .  S
C2104      C2105   1.407       .  A
C2105      C2106   1.404       .  A
C2105      F2108   1.357       .  S
C2106      F2110   1.358       .  S
C2113      C2114   1.403       .  A
C2113      C2118   1.398       .  A
C2113      F2131   1.358       .  S
C2114      C2115   1.405       .  A
C2114      C2119   1.483       .  S
C2115      C2116   1.402       .  A
C2115      F2120   1.358       .  S
C2116      C2117   1.411       .  A
C2116      F2132   1.358       .  S
C2117      C2118   1.411       .  A
C2118      F2121   1.358       .  S
C2119      C2122   1.406       .  A
C2119      C2126   1.407       .  A
C2122      C2123   1.403       .  A
C2122      F2127   1.358       .  S
C2123      C2124   1.406       .  A
C2123      F2129   1.357       .  S
C2124      C2125   1.403       .  A
C2125      C2126   1.399       .  A
C2125      F2128   1.358       .  S
C2126      F2130   1.358       .  S
C2133      C2134   1.404       .  A
C2133      C2138   1.397       .  A
C2133      F2151   1.358       .  S
C2134      C2135   1.405       .  A
C2134      C2139   1.479       .  S
C2135      C2136   1.398       .  A
C2135      F2140   1.358       .  S
C2136      C2137   1.406       .  A
C2136      F2152   1.358       .  S
C2137      C2138   1.409       .  A
C2138      F2141   1.358       .  S
C2139      C2142   1.406       .  A
C2139      C2146   1.408       .  A
C2142      C2143   1.396       .  A
C2142      F2147   1.358       .  S
C2143      C2144   1.402       .  A
C2143      F2149   1.358       .  S
C2144      C2145   1.403       .  A
C2145      C2146   1.397       .  A
C2145      F2148   1.358       .  S
C2146      F2150   1.358       .  S
N2153      C2158   1.351       .  A
N2153      C2157   1.352       .  A
N2153      H2185   1.038       .  S
N2154      C2161   1.352       .  A
N2154      C2162   1.349       .  A
N2155      C2160   1.356       .  A
N2155      C2159   1.351       .  A
N2155      H2186   1.040       .  S
N2156      C2163   1.350       .  A
N2156      C2164   1.351       .  A
C2157      C2165   1.387       .  A
C2157      C2173   1.412       .  A
C2158      C2174   1.412       .  A
C2158      C2166   1.388       .  A
C2159      C2167   1.387       .  A
C2159      C2176   1.414       .  A
C2160      C2175   1.419       .  A
C2160      C2168   1.388       .  A
C2161      C2173   1.411       .  A
C2161      C2169   1.385       .  A
C2162      C2176   1.410       .  A
C2162      C2170   1.388       .  A
C2163      C2171   1.385       .  A
C2163      C2174   1.409       .  A
C2164      C2172   1.387       .  A
C2164      C2175   1.414       .  A
C2165      C2166   1.374       .  A
C2165      H2177   1.082       .  S
C2166      H2178   1.082       .  S
C2167      C2168   1.378       .  A
C2167      H2179   1.082       .  S
C2168      H2180   1.082       .  S
C2169      C2170   1.370       .  A
C2169      H2181   1.082       .  S
C2170      H2182   1.082       .  S
C2171      C2172   1.372       .  A
C2171      H2183   1.082       .  S
C2172      H2184   1.082       .  S
C2173      C3200   1.486       .  S
C2174      C3220   1.477       .  S
C2175      C3180   1.497       .  S
C2176      C3160   1.475       .  S
N2187      C2192   1.349       .  A
N2187      C2191   1.354       .  A
N2187      H2219   1.035       .  S
N2188      C2195   1.353       .  A
N2188      C2196   1.350       .  A
N2189      C2194   1.355       .  A
N2189      C2193   1.354       .  A
N2189      H2220   1.035       .  S
N2190      C2197   1.352       .  A
N2190      C2198   1.352       .  A
C2191      C2199   1.387       .  A
C2191      C2207   1.414       .  A
C2192      C2208   1.412       .  A
C2192      C2200   1.387       .  A
C2193      C2201   1.388       .  A
C2193      C2210   1.419       .  A
C2194      C2209   1.418       .  A
C2194      C2202   1.386       .  A
C2195      C2207   1.413       .  A
C2195      C2203   1.384       .  A
C2196      C2210   1.416       .  A
C2196      C2204   1.389       .  A
C2197      C2205   1.385       .  A
C2197      C2208   1.412       .  A
C2198      C2206   1.388       .  A
C2198      C2209   1.415       .  A
C2199      C2200   1.375       .  A
C2199      H2211   1.082       .  S
C2200      H2212   1.083       .  S
C2201      C2202   1.378       .  A
C2201      H2213   1.082       .  S
C2202      H2214   1.082       .  S
C2203      C2204   1.366       .  A
C2203      H2215   1.082       .  S
C2204      H2216   1.081       .  S
C2205      C2206   1.368       .  A
C2205      H2217   1.082       .  S
C2206      H2218   1.082       .  S
C2207      C3093   1.490       .  S
C2208      C3073   1.477       .  S
C2209      C3120   1.487       .  S
C2210      C3133   1.483       .  S
O2221      C2229   1.267       .  A
O2221     Co2241   1.996       .  S
O2222      C2230   1.248       .  A
O2222     Co2242   1.965       .  S
O2223      C2231   1.264       .  A
O2223     Co2243   1.975       .  S
O2224      C2232   1.259       .  A
O2224     Co3320   2.015       .  S
O2225      C2231   1.268       .  A
O2225     Co2242   2.000       .  S
O2226      C2232   1.249       .  A
O2226     Co2241   1.968       .  S
O2227      C2230   1.254       .  A
O2227     Co2244   1.993   1_545  S
O2228      C2229   1.266       .  A
O2228     Co3319   1.980       .  S
C2229      C3213   1.478       .  S
C2230      C2993   1.488       .  S
C2231      C3193   1.476       .  S
C2232      C3013   1.497       .  S
O2233      C2246   1.265       .  A
O2233     Co2241   1.880       .  S
O2234      C2247   1.259       .  A
O2234     Co2242   1.993       .  S
O2235      C2248   1.267       .  A
O2235     Co3319   2.010       .  S
O2236      C2249   1.303       .  A
O2236     Co2244   2.094   1_545  S
O2237      C2249   1.266       .  A
O2237     Co2242   1.864       .  S
O2238      C2248   1.259       .  A
O2238     Co2241   1.984       .  S
O2239      C2246   1.301       .  A
O2239     Co3320   2.096       .  S
O2240      C2247   1.263       .  A
O2240     Co2243   2.001       .  S
Co2241     O3321   1.913       .  S
Co2242     O2245   1.908   1_545  S
Co2243     O3304   1.972   1_545  S
Co2243     O3311   2.014   1_545  S
Co2243     O2245   2.099   1_545  S
Co2244     O3300   2.008       .  S
Co2244     O3315   2.085       .  S
Co2244     O2245   2.263       .  S
O2245     Co3317   1.906       .  S
C2246      C3053   1.490       .  S
C2247      C3113   1.487       .  S
C2248      C3140   1.485       .  S
C2249      C3033   1.477       .  S
N2250      C2255   1.356       .  A
N2250      C2254   1.354       .  A
N2250      H2282   1.039       .  S
N2251      C2258   1.350       .  A
N2251      C2259   1.351       .  A
N2252      C2257   1.353       .  A
N2252      C2256   1.356       .  A
N2252      H2283   1.040       .  S
N2253      C2260   1.354       .  A
N2253      C2261   1.353       .  A
C2254      C2262   1.386       .  A
C2254      C2270   1.417       .  A
C2255      C2271   1.420       .  A
C2255      C2263   1.387       .  A
C2256      C2264   1.387       .  A
C2256      C2273   1.416       .  A
C2257      C2272   1.416       .  A
C2257      C2265   1.388       .  A
C2258      C2270   1.413       .  A
C2258      C2266   1.387       .  A
C2259      C2273   1.409       .  A
C2259      C2267   1.386       .  A
C2260      C2268   1.386       .  A
C2260      C2271   1.417       .  A
C2261      C2269   1.387       .  A
C2261      C2272   1.416       .  A
C2262      C2263   1.378       .  A
C2262      H2274   1.082       .  S
C2263      H2275   1.082       .  S
C2264      C2265   1.374       .  A
C2264      H2276   1.082       .  S
C2265      H2277   1.082       .  S
C2266      C2267   1.372       .  A
C2266      H2278   1.082       .  S
C2267      H2279   1.082       .  S
C2268      C2269   1.374       .  A
C2268      H2280   1.082       .  S
C2269      H2281   1.082       .  S
C2270      C3000   1.485       .  S
C2271      C3020   1.499       .  S
C2272      C2973   1.492       .  S
C2273      C2960   1.487       .  S
N2284      C2289   1.352       .  A
N2284      C2288   1.353       .  A
N2284      H2316   1.041       .  S
N2285      C2292   1.349       .  A
N2285      C2293   1.349       .  A
N2286      C2291   1.352       .  A
N2286      C2290   1.353       .  A
N2286      H2317   1.037       .  S
N2287      C2294   1.353       .  A
N2287      C2295   1.352       .  A
C2288      C2296   1.387       .  A
C2288      C2304   1.414       .  A
C2289      C2305   1.413       .  A
C2289      C2297   1.387       .  A
C2290      C2298   1.387       .  A
C2290      C2307   1.416       .  A
C2291      C2306   1.415       .  A
C2291      C2299   1.387       .  A
C2292      C2304   1.409       .  A
C2292      C2300   1.386       .  A
C2293      C2307   1.409       .  A
C2293      C2301   1.387       .  A
C2294      C2302   1.385       .  A
C2294      C2305   1.413       .  A
C2295      C2303   1.387       .  A
C2295      C2306   1.416       .  A
C2296      C2297   1.373       .  A
C2296      H2308   1.082       .  S
C2297      H2309   1.082       .  S
C2298      C2299   1.378       .  A
C2298      H2310   1.082       .  S
C2299      H2311   1.082       .  S
C2300      C2301   1.373       .  A
C2300      H2312   1.082       .  S
C2301      H2313   1.082       .  S
C2302      C2303   1.375       .  A
C2302      H2314   1.082       .  S
C2303      H2315   1.082       .  S
C2304      C2913   1.487       .  S
C2305      C2933   1.490       .  S
C2306      C3060   1.485       .  S
C2307      C3040   1.481       .  S
C2318      N2336   1.349       .  A
N2319      N2336   1.321       .  A
N2319      N2341   1.318       .  A
N2319     Co2356   2.084       .  S
C2320      N2345   1.349       .  A
C2320      H2365   1.081       .  S
C2320      C2358   1.473       .  S
H2321      C2362   1.081       .  S
C2322      N2346   1.347       .  A
C2322      H2351   1.082       .  S
C2322      C2326   1.465       .  S
Co2323     N3417   2.092       .  S
Co2323     N2331   2.093       .  S
Co2323     N3439   2.073       .  S
Co2323     N2339   2.082       .  S
Co2323    Cl2367   2.454       .  S
N2324      C2362   1.336       .  A
N2324      N2331   1.318       .  A
N2324     Co2325   2.085       .  S
Co2325     N2328   2.080       .  S
Co2325     N2345   2.100       .  S
Co2325     N2332   2.100       .  S
Co2325    Cl2367   2.448       .  S
C2326      N2364   1.344       .  A
C2326      C3100   1.469       .  S
N2327      N2334   1.320       .  A
N2327      N2357   1.328       .  A
N2327     Co2360   2.092       .  S
N2328      N2346   1.321       .  A
N2328      N2364   1.320       .  A
H2330      C2355   1.080   1_655  S
N2332      N2350   1.319       .  A
N2332      N2337   1.330       .  A
C2333      N2337   1.356       .  A
C2333      C2361   1.456       .  S
C2333      C2860   1.486       .  S
N2334      C2349   1.332       .  A
N2334     Co2356   2.066       .  S
C2335      H2369   1.082       .  S
C2338      N2359   1.354       .  A
N2339      N2345   1.320       .  A
N2340      C2366   1.348       .  A
N2340      N2342   1.320       .  A
N2340     Co2356   2.096       .  S
N2341     Co3399   2.084       .  S
N2342      N2370   1.317       .  A
N2342     Co2360   2.072       .  S
H2343      C2366   1.081       .  S
H2344      C2361   1.081       .  S
N2346     Co3436   2.093       .  S
N2347      N2359   1.329       .  A
N2347      N2363   1.320       .  A
N2347     Co2356   2.089       .  S
C2348      C2362   1.460       .  S
C2349      H2353   1.082       .  S
C2349      C2368   1.450       .  S
N2350      C2361   1.335       .  A
N2350     Co3436   2.076       .  S
C2354      N2370   1.344       .  A
C2354      C2366   1.471       .  S
C2354      C2893   1.482       .  S
Co2356    Cl3443   2.449       .  S
N2357      C2368   1.354       .  A
Co2360     N3422   2.099   1_545  S
Co2360     N3426   2.088   1_545  S
Co2360    Cl3443   2.448       .  S
N2363     Co3399   2.086       .  S
Cl2367    Co3432   2.452       .  S
Cl2367    Co3436   2.456       .  S
C2368      C3080   1.471       .  S
O2371      C2379   1.270       .  A
O2371     Co2391   1.868   1_556  S
O2372      C2380   1.266       .  A
O2372     Co2392   1.982       .  S
O2373      C2381   1.291       .  A
O2373     Co2393   1.988       .  S
O2374      C2382   1.260       .  A
O2374     Co2394   1.991       .  S
O2375      C2381   1.287       .  A
O2375     Co2392   1.971   1_556  S
O2376      C2382   1.259       .  A
O2376     Co2391   1.984       .  S
O2377      C2380   1.269       .  A
O2377     Co2394   2.000       .  S
O2378      C2379   1.305       .  A
O2378     Co2393   2.110       .  S
C2380      C2680   1.482       .  S
C2381      C2793   1.488       .  S
O2383      C2396   1.280       .  A
O2383     Co2391   2.010       .  S
O2384      C2397   1.249       .  A
O2384     Co2392   1.967   1_556  S
O2385      C2398   1.296       .  A
O2385     Co2393   2.081       .  S
O2386      C2399   1.269       .  A
O2386     Co2394   1.980       .  S
O2387      C2399   1.274       .  A
O2387     Co2392   2.006       .  S
O2388      C2398   1.258       .  A
O2388     Co2391   1.950   1_556  S
O2389      C2396   1.275       .  A
O2389     Co2394   1.978       .  S
O2390      C2397   1.276       .  A
O2390     Co2393   2.040       .  S
Co2391     O2395   1.877       .  S
Co2392     O2395   1.989       .  S
Co2393     O2395   2.059   1_556  S
Co2394     O2395   2.026       .  S
C2397      C2753   1.484       .  S
C2399      C2713   1.488       .  S
N2400      C2405   1.356       .  A
N2400      C2404   1.351       .  A
N2400      H2432   1.040       .  S
N2401      C2408   1.351       .  A
N2401      C2409   1.354       .  A
N2402      C2407   1.350       .  A
N2402      C2406   1.351       .  A
N2402      H2433   1.040       .  S
N2403      C2410   1.351       .  A
N2403      C2411   1.349       .  A
C2404      C2412   1.389       .  A
C2404      C2420   1.418       .  A
C2405      C2421   1.416       .  A
C2405      C2413   1.385       .  A
C2406      C2414   1.387       .  A
C2406      C2423   1.412       .  A
C2407      C2422   1.410       .  A
C2407      C2415   1.387       .  A
C2408      C2420   1.416       .  A
C2408      C2416   1.387       .  A
C2409      C2423   1.414       .  A
C2409      C2417   1.385       .  A
C2410      C2418   1.386       .  A
C2410      C2421   1.412       .  A
C2411      C2419   1.387       .  A
C2411      C2422   1.411       .  A
C2412      C2413   1.377       .  A
C2412      H2424   1.083       .  S
C2413      H2425   1.082       .  S
C2414      C2415   1.373       .  A
C2414      H2426   1.083       .  S
C2415      H2427   1.082       .  S
C2416      C2417   1.377       .  A
C2416      H2428   1.082       .  S
C2417      H2429   1.082       .  S
C2418      C2419   1.374       .  A
C2418      H2430   1.082       .  S
C2419      H2431   1.082       .  S
C2420      C2760   1.486       .  S
C2421      C2640   1.491       .  S
C2422      C2653   1.475       .  S
C2423      C2780   1.489       .  S
N2434      C2439   1.351       .  A
N2434      C2438   1.352       .  A
N2434      H2466   1.039       .  S
N2435      C2442   1.350       .  A
N2435      C2443   1.351       .  A
N2436      C2441   1.350       .  A
N2436      C2440   1.348       .  A
N2436      H2467   1.039       .  S
N2437      C2444   1.349       .  A
N2437      C2445   1.350       .  A
C2438      C2446   1.387       .  A
C2438      C2454   1.414       .  A
C2439      C2455   1.413       .  A
C2439      C2447   1.386       .  A
C2440      C2448   1.386       .  A
C2440      C2457   1.408       .  A
C2441      C2456   1.410       .  A
C2441      C2449   1.387       .  A
C2442      C2454   1.411       .  A
C2442      C2450   1.386       .  A
C2443      C2457   1.411       .  A
C2443      C2451   1.386       .  A
C2444      C2452   1.386       .  A
C2444      C2455   1.409       .  A
C2445      C2453   1.386       .  A
C2445      C2456   1.410       .  A
C2446      C2447   1.379       .  A
C2446      H2458   1.082       .  S
C2447      H2459   1.082       .  S
C2448      C2449   1.375       .  A
C2448      H2460   1.082       .  S
C2449      H2461   1.082       .  S
C2450      C2451   1.373       .  A
C2450      H2462   1.082       .  S
C2451      H2463   1.082       .  S
C2452      C2453   1.372       .  A
C2452      H2464   1.082       .  S
C2453      H2465   1.082       .  S
C2454      C2800   1.482       .  S
C2455      C2820   1.479       .  S
C2456      C2620   1.480       .  S
C2457      C2593   1.481       .  S
C2468      C2505   1.456       .  S
N2469      N2491   1.319       .  A
N2469     Co2506   2.090       .  S
C2470      N2495   1.343       .  A
C2470      H2515   1.081       .  S
C2470      C2508   1.459       .  S
H2471      C2512   1.081       .  S
C2472      N2496   1.342       .  A
C2472      H2501   1.081       .  S
C2472      C2476   1.468       .  S
Co2473     N2491   2.077       .  S
Co2473     N2481   2.076       .  S
Co2473     N3589   2.079       .  S
Co2473     N3565   2.081       .  S
Co2473    Cl2517   2.432       .  S
N2474      C2512   1.346       .  A
N2474      N2481   1.319       .  A
N2474     Co2475   2.088       .  S
Co2475     N2478   2.094       .  S
Co2475     N3571   2.088       .  S
Co2475     N3558   2.079       .  S
Co2475    Cl2517   2.460       .  S
C2476      N2514   1.353       .  A
C2476      C2633   1.492       .  S
N2477      N2484   1.319       .  A
N2477      N2507   1.325       .  A
N2477     Co2510   2.088       .  S
N2478      N2496   1.320       .  A
N2478      N2514   1.324       .  A
N2479      C2508   1.346       .  A
N2479      N2489   1.320       .  A
H2480      C2505   1.082       .  S
N2481      N2502   1.321       .  A
N2482      N2500   1.317       .  A
N2482      N2487   1.324       .  A
N2482     Co3551   2.086   1_545  S
C2483      N2487   1.354       .  A
C2483      C2511   1.466       .  S
C2483      C2600   1.489       .  S
N2484     Co2506   2.073       .  S
C2485      N2513   1.336       .  A
C2485      H2519   1.081       .  S
C2485      C2488   1.456       .  S
N2489      N2495   1.319       .  A
N2489     Co3549   2.076   1_545  S
N2490      N2492   1.318       .  A
N2490     Co3582   2.077   1_545  S
N2491      C2505   1.337       .  A
N2492      N2520   1.322       .  A
N2492     Co3586   2.086   1_545  S
H2493      C2516   1.081       .  S
H2494      C2511   1.079       .  S
N2495     Co3551   2.076   1_545  S
N2496     Co2510   2.089       .  S
N2497      N2513   1.319       .  A
N2497     Co3582   2.092   1_545  S
C2498      N2502   1.346       .  A
C2498      C2512   1.464       .  S
C2498      C2940   1.473       .  S
C2499      H2503   1.079       .  S
C2499      C2518   1.465       .  S
N2500      C2511   1.337       .  A
N2500     Co3586   2.076   1_545  S
C2504      C2516   1.462   1_455  S
C2504      C2613   1.481   1_455  S
Co2506     N3566   2.078       .  S
Co2506     N3573   2.067       .  S
Co2506    Cl2517   2.456       .  S
C2508      C2920   1.467       .  S
Co2510     N3568   2.081       .  S
Co2510     N3576   2.079       .  S
Co2510    Cl2517   2.444       .  S
N2513     Co3549   2.070   1_545  S
C2518      C2660   1.487       .  S
N2521      C2526   1.352       .  A
N2521      C2525   1.357       .  A
N2521      H2553   1.041       .  S
N2522      C2529   1.353       .  A
N2522      C2530   1.350       .  A
N2523      C2528   1.355       .  A
N2523      C2527   1.351       .  A
N2523      H2554   1.042       .  S
N2524      C2531   1.351       .  A
N2524      C2532   1.355       .  A
C2525      C2533   1.386       .  A
C2525      C2541   1.419       .  A
C2526      C2542   1.418       .  A
C2526      C2534   1.388       .  A
C2527      C2535   1.388       .  A
C2527      C2544   1.415       .  A
C2528      C2543   1.416       .  A
C2528      C2536   1.387       .  A
C2529      C2541   1.414       .  A
C2529      C2537   1.386       .  A
C2530      C2544   1.411       .  A
C2530      C2538   1.386       .  A
C2531      C2539   1.389       .  A
C2531      C2542   1.418       .  A
C2532      C2540   1.384       .  A
C2532      C2543   1.414       .  A
C2533      C2534   1.378       .  A
C2533      H2545   1.082       .  S
C2534      H2546   1.082       .  S
C2535      C2536   1.376       .  A
C2535      H2547   1.082       .  S
C2536      H2548   1.082       .  S
C2537      C2538   1.371       .  A
C2537      H2549   1.082       .  S
C2538      H2550   1.082       .  S
C2539      C2540   1.372       .  A
C2539      H2551   1.082       .  S
C2540      H2552   1.082       .  S
C2541      C2673   1.498       .  S
C2542      C2700   1.486       .  S
C2543      C2880   1.498       .  S
C2544      C2900   1.480       .  S
N2555      C2560   1.355       .  A
N2555      C2559   1.357       .  A
N2555      H2587   1.040       .  S
N2556      C2563   1.351       .  A
N2556      C2564   1.352       .  A
N2557      C2562   1.349       .  A
N2557      C2561   1.349       .  A
N2557      H2588   1.039       .  S
N2558      C2565   1.347       .  A
N2558      C2566   1.350       .  A
C2559      C2567   1.388       .  A
C2559      C2575   1.424       .  A
C2560      C2576   1.420       .  A
C2560      C2568   1.387       .  A
C2561      C2569   1.389       .  A
C2561      C2578   1.409       .  A
C2562      C2577   1.406       .  A
C2562      C2570   1.386       .  A
C2563      C2575   1.416       .  A
C2563      C2571   1.387       .  A
C2564      C2578   1.411       .  A
C2564      C2572   1.384       .  A
C2565      C2573   1.388       .  A
C2565      C2576   1.408       .  A
C2566      C2574   1.385       .  A
C2566      C2577   1.406       .  A
C2567      C2568   1.380       .  A
C2567      H2579   1.082       .  S
C2568      H2580   1.082       .  S
C2569      C2570   1.373       .  A
C2569      H2581   1.082       .  S
C2570      H2582   1.082       .  S
C2571      C2572   1.374       .  A
C2571      H2583   1.082       .  S
C2572      H2584   1.082       .  S
C2573      C2574   1.373       .  A
C2573      H2585   1.082       .  S
C2574      H2586   1.082       .  S
C2575      C2853   1.502       .  S
C2576      C2833   1.485       .  S
C2577      C2733   1.475       .  S
C2578      C2720   1.480       .  S
C2589      C2590   1.405       .  A
C2589      C2594   1.396       .  A
C2589      F2607   1.358       .  S
C2590      C2591   1.406       .  A
C2590      C2595   1.477       .  S
C2591      C2592   1.397       .  A
C2591      F2596   1.357       .  S
C2592      C2593   1.403       .  A
C2592      F2608   1.357       .  S
C2593      C2594   1.405       .  A
C2594      F2597   1.358       .  S
C2595      C2598   1.402       .  A
C2595      C2602   1.403       .  A
C2598      C2599   1.396       .  A
C2598      F2603   1.358       .  S
C2599      C2600   1.413       .  A
C2599      F2605   1.355       .  S
C2600      C2601   1.412       .  A
C2601      C2602   1.398       .  A
C2601      F2604   1.358       .  S
C2602      F2606   1.358       .  S
C2609      C2610   1.400       .  A
C2609      C2614   1.396       .  A
C2609      F2627   1.358       .  S
C2610      C2611   1.400       .  A
C2610      C2615   1.467       .  S
C2611      C2612   1.397       .  A
C2611      F2616   1.358       .  S
C2612      C2613   1.411       .  A
C2612      F2628   1.357       .  S
C2613      C2614   1.410       .  A
C2615      C2618   1.403       .  A
C2615      C2622   1.402       .  A
C2618      C2619   1.399       .  A
C2618      F2623   1.357       .  S
C2619      C2620   1.405       .  A
C2619      F2625   1.357       .  S
C2620      C2621   1.405       .  A
C2621      C2622   1.393       .  A
C2621      F2624   1.358       .  S
C2622      F2626   1.358       .  S
C2629      C2630   1.405       .  A
C2629      C2634   1.403       .  A
C2629      F2647   1.358       .  S
C2630      C2631   1.403       .  A
C2630      C2635   1.486       .  S
C2631      C2632   1.400       .  A
C2631      F2636   1.358       .  S
C2632      C2633   1.412       .  A
C2632      F2648   1.358       .  S
C2633      C2634   1.412       .  A
C2634      F2637   1.357       .  S
C2635      C2638   1.407       .  A
C2635      C2642   1.406       .  A
C2638      C2639   1.403       .  A
C2638      F2643   1.358       .  S
C2639      C2640   1.406       .  A
C2639      F2645   1.357       .  S
C2640      C2641   1.405       .  A
C2641      C2642   1.401       .  A
C2641      F2644   1.357       .  S
C2642      F2646   1.358       .  S
C2649      C2650   1.406       .  A
C2649      C2654   1.397       .  A
C2649      F2667   1.358       .  S
C2650      C2651   1.405       .  A
C2650      C2655   1.474       .  S
C2651      C2652   1.395       .  A
C2651      F2656   1.358       .  S
C2652      C2653   1.402       .  A
C2652      F2668   1.358       .  S
C2653      C2654   1.402       .  A
C2654      F2657   1.358       .  S
C2655      C2658   1.400       .  A
C2655      C2662   1.403       .  A
C2658      C2659   1.394       .  A
C2658      F2663   1.358       .  S
C2659      C2660   1.413       .  A
C2659      F2665   1.354       .  S
C2660      C2661   1.412       .  A
C2661      C2662   1.399       .  A
C2662      F2666   1.358       .  S
C2669      C2670   1.408       .  A
C2669      C2674   1.402       .  A
C2669      F2687   1.358       .  S
C2670      C2671   1.405       .  A
C2670      C2675   1.488       .  S
C2671      C2672   1.403       .  A
C2671      F2676   1.358       .  S
C2672      C2673   1.410       .  A
C2672      F2688   1.358       .  S
C2673      C2674   1.406       .  A
C2674      F2677   1.357       .  S
C2675      C2678   1.406       .  A
C2675      C2682   1.406       .  A
C2678      C2679   1.402       .  A
C2678      F2683   1.358       .  S
C2679      C2680   1.408       .  A
C2679      F2685   1.357       .  S
C2680      C2681   1.407       .  A
C2681      C2682   1.400       .  A
C2681      F2684   1.358       .  S
C2682      F2686   1.358       .  S
C2689      C2690   1.400       .  A
C2689      C2694   1.394   1_655  A
C2689      F2707   1.358       .  S
C2690      C2691   1.403       .  A
C2690      C2695   1.473       .  S
C2691      C2692   1.402       .  A
C2691      F2696   1.357       .  S
C2692      C2693   1.411   1_655  A
C2692      F2708   1.357       .  S
C2693      C2694   1.411       .  A
C2695      C2698   1.406       .  A
C2695      C2702   1.401       .  A
C2698      C2699   1.398       .  A
C2698      F2703   1.358       .  S
C2699      C2700   1.404       .  A
C2699      F2705   1.358       .  S
C2700      C2701   1.407       .  A
C2701      C2702   1.399       .  A
C2701      F2704   1.358       .  S
C2702      F2706   1.357       .  S
C2709      C2710   1.404       .  A
C2709      C2714   1.397       .  A
C2709      F2727   1.358       .  S
C2710      C2711   1.406       .  A
C2710      C2715   1.484       .  S
C2711      C2712   1.400       .  A
C2711      F2716   1.358       .  S
C2712      C2713   1.412       .  A
C2712      F2728   1.358       .  S
C2713      C2714   1.412       .  A
C2714      F2717   1.358       .  S
C2715      C2718   1.409       .  A
C2715      C2722   1.408       .  A
C2718      C2719   1.397       .  A
C2718      F2723   1.358       .  S
C2719      C2720   1.402       .  A
C2719      F2725   1.358       .  S
C2720      C2721   1.403       .  A
C2721      C2722   1.398       .  A
C2721      F2724   1.358       .  S
C2722      F2726   1.358       .  S
C2729      C2730   1.405       .  A
C2729      C2734   1.395       .  A
C2729      F2747   1.358       .  S
C2730      C2731   1.407       .  A
C2730      C2735   1.473       .  S
C2731      C2732   1.396       .  A
C2731      F2736   1.358       .  S
C2732      C2733   1.402       .  A
C2732      F2748   1.358       .  S
C2733      C2734   1.402       .  A
C2734      F2737   1.358       .  S
C2735      C2738   1.405       .  A
C2735      C2742   1.400       .  A
C2738      C2739   1.399       .  A
C2738      F2743   1.358       .  S
C2739      C2740   1.410       .  A
C2739      F2745   1.358       .  S
C2740      C2741   1.412       .  A
C2741      C2742   1.390       .  A
C2742      F2746   1.358       .  S
C2749      C2750   1.403       .  A
C2749      C2754   1.399       .  A
C2749      F2767   1.358       .  S
C2750      C2751   1.404       .  A
C2750      C2755   1.481       .  S
C2751      C2752   1.402       .  A
C2751      F2756   1.358       .  S
C2752      C2753   1.412       .  A
C2752      F2768   1.358       .  S
C2753      C2754   1.410       .  A
C2754      F2757   1.358       .  S
C2755      C2758   1.402       .  A
C2755      C2762   1.408       .  A
C2758      C2759   1.397       .  A
C2758      F2763   1.357       .  S
C2759      C2760   1.405       .  A
C2759      F2765   1.358       .  S
C2760      C2761   1.405       .  A
C2761      C2762   1.402       .  A
C2761      F2764   1.358       .  S
C2762      F2766   1.357       .  S
C2769      C2770   1.406       .  A
C2769      C2774   1.401   1_655  A
C2769      F2787   1.357       .  S
C2770      C2771   1.404       .  A
C2770      C2775   1.482       .  S
C2771      C2772   1.399       .  A
C2771      F2776   1.358       .  S
C2772      C2773   1.410   1_655  A
C2772      F2788   1.358       .  S
C2773      C2774   1.406       .  A
C2775      C2778   1.408       .  A
C2775      C2782   1.404       .  A
C2778      C2779   1.400       .  A
C2778      F2783   1.358       .  S
C2779      C2780   1.404       .  A
C2779      F2785   1.358       .  S
C2780      C2781   1.408       .  A
C2781      C2782   1.400       .  A
C2781      F2784   1.358       .  S
C2782      F2786   1.358       .  S
C2789      C2790   1.404       .  A
C2789      C2794   1.398       .  A
C2789      F2807   1.358       .  S
C2790      C2791   1.404       .  A
C2790      C2795   1.482       .  S
C2791      C2792   1.401       .  A
C2791      F2796   1.358       .  S
C2792      C2793   1.411       .  A
C2792      F2808   1.358       .  S
C2793      C2794   1.412       .  A
C2794      F2797   1.358       .  S
C2795      C2798   1.405       .  A
C2795      C2802   1.408       .  A
C2798      C2799   1.397       .  A
C2798      F2803   1.358       .  S
C2799      C2800   1.403       .  A
C2799      F2805   1.358       .  S
C2800      C2801   1.403       .  A
C2801      C2802   1.400       .  A
C2801      F2804   1.358       .  S
C2802      F2806   1.357       .  S
C2809      C2810   1.405       .  A
C2809      C2814   1.401       .  A
C2809      F2827   1.358       .  S
C2810      C2811   1.403       .  A
C2810      C2815   1.483       .  S
C2811      C2812   1.396       .  A
C2811      F2816   1.358       .  S
C2812      C2813   1.412       .  A
C2812      F2828   1.358       .  S
C2813      C2814   1.412       .  A
C2814      F2817   1.358   1_655  S
C2815      C2818   1.407       .  A
C2815      C2822   1.408       .  A
C2818      C2819   1.398       .  A
C2818      F2823   1.358       .  S
C2819      C2820   1.403       .  A
C2819      F2825   1.358       .  S
C2820      C2821   1.402       .  A
C2821      C2822   1.398       .  A
C2821      F2824   1.358       .  S
C2822      F2826   1.357       .  S
C2829      C2830   1.404       .  A
C2829      C2834   1.397       .  A
C2829      F2847   1.358       .  S
C2830      C2831   1.406       .  A
C2830      C2835   1.476       .  S
C2831      C2832   1.398       .  A
C2831      F2836   1.358       .  S
C2832      C2833   1.403       .  A
C2832      F2848   1.357       .  S
C2833      C2834   1.407       .  A
C2834      F2837   1.358       .  S
C2835      C2838   1.401       .  A
C2835      C2842   1.407       .  A
C2838      C2839   1.391       .  A
C2838      F2843   1.358       .  S
C2839      C2840   1.406       .  A
C2839      F2845   1.358       .  S
C2840      C2841   1.407   1_655  A
C2841      C2842   1.403   1_455  A
C2841      F2844   1.358       .  S
C2842      F2846   1.358       .  S
C2849      C2850   1.405       .  A
C2849      C2854   1.398       .  A
C2849      F2867   1.358       .  S
C2850      C2851   1.407       .  A
C2850      C2855   1.488       .  S
C2851      C2852   1.405       .  A
C2851      F2856   1.357       .  S
C2852      C2853   1.410       .  A
C2852      F2868   1.357       .  S
C2853      C2854   1.411       .  A
C2854      F2857   1.358       .  S
C2855      C2858   1.409       .  A
C2855      C2862   1.404       .  A
C2858      C2859   1.408       .  A
C2858      F2863   1.357       .  S
C2859      C2860   1.409       .  A
C2859      F2865   1.357       .  S
C2860      C2861   1.408       .  A
C2861      C2862   1.394       .  A
C2861      F2864   1.357       .  S
C2862      F2866   1.358       .  S
C2869      C2870   1.409       .  A
C2869      C2874   1.404       .  A
C2869      F2887   1.357       .  S
C2870      C2871   1.405       .  A
C2870      C2875   1.488       .  S
C2871      C2872   1.398       .  A
C2871      F2876   1.358       .  S
C2872      C2873   1.407       .  A
C2872      F2888   1.358       .  S
C2873      C2874   1.405       .  A
C2875      C2878   1.407       .  A
C2875      C2882   1.407       .  A
C2878      C2879   1.401       .  A
C2878      F2883   1.358       .  S
C2879      C2880   1.407       .  A
C2879      F2885   1.358       .  S
C2880      C2881   1.408       .  A
C2881      C2882   1.403       .  A
C2881      F2884   1.357       .  S
C2882      F2886   1.358       .  S
C2889      C2890   1.408       .  A
C2889      C2894   1.404       .  A
C2889      F2907   1.357       .  S
C2890      C2891   1.401       .  A
C2890      C2895   1.480       .  S
C2891      C2892   1.390       .  A
C2891      F2896   1.359       .  S
C2892      C2893   1.410       .  A
C2892      F2908   1.353       .  S
C2893      C2894   1.407       .  A
C2894      F2897   1.356       .  S
C2895      C2898   1.406       .  A
C2895      C2902   1.408       .  A
C2898      C2899   1.397       .  A
C2898      F2903   1.357       .  S
C2899      C2900   1.402       .  A
C2899      F2905   1.357       .  S
C2900      C2901   1.403       .  A
C2901      C2902   1.396       .  A
C2901      F2904   1.358       .  S
C2902      F2906   1.358       .  S
C2909      C2910   1.405       .  A
C2909      C2914   1.392       .  A
C2909      F2927   1.358       .  S
C2910      C2911   1.404       .  A
C2910      C2915   1.474       .  S
C2911      C2912   1.399       .  A
C2911      F2916   1.358       .  S
C2912      C2913   1.408       .  A
C2912      F2928   1.358       .  S
C2913      C2914   1.405       .  A
C2914      F2917   1.358       .  S
C2915      C2918   1.405       .  A
C2915      C2922   1.404       .  A
C2918      C2919   1.401       .  A
C2918      F2923   1.358       .  S
C2919      C2920   1.406       .  A
C2919      F2925   1.357       .  S
C2920      C2921   1.404       .  A
C2921      C2922   1.391       .  A
C2921      F2924   1.359       .  S
C2922      F2926   1.358       .  S
C2929      C2930   1.409       .  A
C2929      C2934   1.398       .  A
C2929      F2947   1.358       .  S
C2930      C2931   1.406       .  A
C2930      C2935   1.486       .  S
C2931      C2932   1.401       .  A
C2931      F2936   1.358       .  S
C2932      C2933   1.408       .  A
C2932      F2948   1.358       .  S
C2933      C2934   1.403       .  A
C2934      F2937   1.358       .  S
C2935      C2938   1.406       .  A
C2935      C2942   1.409       .  A
C2938      C2939   1.395       .  A
C2938      F2943   1.358       .  S
C2939      C2940   1.403       .  A
C2939      F2945   1.358       .  S
C2940      C2941   1.406       .  A
C2941      C2942   1.404       .  A
C2941      F2944   1.357       .  S
C2942      F2946   1.358       .  S
C2949      C2950   1.406       .  A
C2949      C2954   1.400       .  A
C2949      F2967   1.358       .  S
C2950      C2951   1.407       .  A
C2950      C2955   1.485       .  S
C2951      C2952   1.401       .  A
C2951      F2956   1.358       .  S
C2952      C2953   1.405       .  A
C2952      F2968   1.358       .  S
C2953      C2954   1.408       .  A
C2955      C2958   1.408       .  A
C2955      C2962   1.407       .  A
C2958      C2959   1.402       .  A
C2958      F2963   1.358       .  S
C2959      C2960   1.405       .  A
C2959      F2965   1.358       .  S
C2960      C2961   1.404       .  A
C2961      C2962   1.398       .  A
C2961      F2964   1.358       .  S
C2962      F2966   1.358       .  S
C2969      C2970   1.408       .  A
C2969      C2974   1.395       .  A
C2969      F2987   1.358       .  S
C2970      C2971   1.408       .  A
C2970      C2975   1.487       .  S
C2971      C2972   1.403       .  A
C2971      F2976   1.358       .  S
C2972      C2973   1.408       .  A
C2972      F2988   1.358       .  S
C2973      C2974   1.404       .  A
C2974      F2977   1.358       .  S
C2975      C2978   1.408       .  A
C2975      C2982   1.405       .  A
C2978      C2979   1.406       .  A
C2978      F2983   1.358       .  S
C2979      C2980   1.410       .  A
C2979      F2985   1.357       .  S
C2981      F2984   1.358       .  S
C2989      C2990   1.403       .  A
C2989      C2994   1.401       .  A
C2989      F3007   1.358       .  S
C2990      C2991   1.402       .  A
C2990      C2995   1.479       .  S
C2991      C2992   1.398       .  A
C2991      F2996   1.358       .  S
C2992      C2993   1.413       .  A
C2992      F3008   1.358       .  S
C2993      C2994   1.412       .  A
C2994      F2997   1.358       .  S
C2995      C2998   1.407       .  A
C2995      C3002   1.404       .  A
C2998      C2999   1.399       .  A
C2998      F3003   1.358       .  S
C2999      C3000   1.403       .  A
C2999      F3005   1.358       .  S
C3000      C3001   1.406       .  A
C3001      C3002   1.399       .  A
C3001      F3004   1.358       .  S
C3002      F3006   1.358       .  S
C3009      C3010   1.404       .  A
C3009      C3014   1.405       .  A
C3009      F3027   1.358       .  S
C3010      C3011   1.403       .  A
C3010      C3015   1.488       .  S
C3011      C3012   1.404       .  A
C3011      F3016   1.358       .  S
C3012      C3013   1.414       .  A
C3012      F3028   1.357       .  S
C3013      C3014   1.412       .  A
C3014      F3017   1.358       .  S
C3015      C3018   1.407       .  A
C3015      C3022   1.405       .  A
C3018      C3019   1.404       .  A
C3018      F3023   1.358       .  S
C3019      C3020   1.407       .  A
C3019      F3025   1.358       .  S
C3020      C3021   1.409       .  A
C3021      C3022   1.405       .  A
C3021      F3024   1.358       .  S
C3022      F3026   1.357       .  S
C3029      C3030   1.406       .  A
C3029      C3034   1.401       .  A
C3029      F3047   1.358       .  S
C3030      C3031   1.403       .  A
C3030      C3035   1.479       .  S
C3031      C3032   1.393       .  A
C3031      F3036   1.358       .  S
C3032      C3033   1.410       .  A
C3032      F3048   1.359       .  S
C3033      C3034   1.407       .  A
C3034      F3037   1.358       .  S
C3035      C3038   1.408       .  A
C3035      C3042   1.405       .  A
C3038      C3039   1.394       .  A
C3038      F3043   1.358       .  S
C3039      C3040   1.400       .  A
C3039      F3045   1.358       .  S
C3040      C3041   1.406       .  A
C3041      C3042   1.401       .  A
C3041      F3044   1.357       .  S
C3042      F3046   1.358       .  S
C3049      C3050   1.402       .  A
C3049      C3054   1.396       .  A
C3049      F3067   1.358       .  S
C3050      C3051   1.406       .  A
C3050      C3055   1.482       .  S
C3051      C3052   1.405       .  A
C3051      F3056   1.358       .  S
C3052      C3053   1.411       .  A
C3052      F3068   1.358       .  S
C3053      C3054   1.412       .  A
C3054      F3057   1.358       .  S
C3055      C3058   1.406       .  A
C3055      C3062   1.407       .  A
C3058      C3059   1.395       .  A
C3058      F3063   1.358       .  S
C3059      C3060   1.402       .  A
C3059      F3065   1.358       .  S
C3060      C3061   1.407       .  A
C3061      C3062   1.405       .  A
C3061      F3064   1.357       .  S
C3062      F3066   1.357       .  S
C3069      C3070   1.405       .  A
C3069      C3074   1.399       .  A
C3069      F3087   1.357       .  S
C3070      C3071   1.406       .  A
C3070      C3075   1.474       .  S
C3071      C3072   1.392       .  A
C3071      F3076   1.358       .  S
C3072      C3073   1.401       .  A
C3072      F3088   1.358       .  S
C3073      C3074   1.404       .  A
C3074      F3077   1.357       .  S
C3075      C3078   1.406       .  A
C3075      C3082   1.402       .  A
C3078      C3079   1.400       .  A
C3078      F3083   1.357       .  S
C3079      C3080   1.403       .  A
C3079      F3085   1.357       .  S
C3080      C3081   1.408       .  A
C3081      C3082   1.392       .  A
C3081      F3084   1.358       .  S
C3082      F3086   1.359       .  S
C3089      C3090   1.406       .  A
C3089      C3094   1.400       .  A
C3089      F3107   1.358       .  S
C3090      C3091   1.409       .  A
C3090      C3095   1.485       .  S
C3091      C3092   1.397       .  A
C3091      F3096   1.358       .  S
C3092      C3093   1.403       .  A
C3092      F3108   1.358       .  S
C3093      C3094   1.407       .  A
C3094      F3097   1.358       .  S
C3095      C3098   1.409       .  A
C3095      C3102   1.407       .  A
C3098      C3099   1.403       .  A
C3098      F3103   1.358       .  S
C3099      C3100   1.404       .  A
C3099      F3105   1.358       .  S
C3100      C3101   1.403       .  A
C3101      C3102   1.396       .  A
C3101      F3104   1.358       .  S
C3102      F3106   1.358       .  S
C3109      C3110   1.406       .  A
C3109      C3114   1.397       .  A
C3109      F3127   1.358       .  S
C3110      C3111   1.406       .  A
C3110      C3115   1.486       .  S
C3111      C3112   1.402       .  A
C3111      F3116   1.357       .  S
C3112      C3113   1.410       .  A
C3112      F3128   1.356       .  S
C3113      C3114   1.410       .  A
C3114      F3117   1.358       .  S
C3115      C3118   1.407       .  A
C3115      C3122   1.409       .  A
C3118      C3119   1.402       .  A
C3118      F3123   1.357       .  S
C3119      C3120   1.406       .  A
C3119      F3125   1.358       .  S
C3120      C3121   1.403       .  A
C3121      C3122   1.398       .  A
C3121      F3124   1.358       .  S
C3122      F3126   1.358       .  S
C3129      C3130   1.406       .  A
C3129      C3134   1.400       .  A
C3129      F3147   1.358       .  S
C3130      C3131   1.406       .  A
C3130      C3135   1.479       .  S
C3131      C3132   1.395       .  A
C3131      F3136   1.358       .  S
C3132      C3133   1.402       .  A
C3132      F3148   1.358       .  S
C3133      C3134   1.406       .  A
C3134      F3137   1.358       .  S
C3135      C3138   1.402       .  A
C3135      C3142   1.405       .  A
C3138      C3139   1.398       .  A
C3138      F3143   1.358       .  S
C3139      C3140   1.411       .  A
C3139      F3145   1.354       .  S
C3140      C3141   1.409       .  A
C3141      C3142   1.398       .  A
C3141      F3144   1.358       .  S
C3142      F3146   1.358       .  S
C3149      C3150   1.404       .  A
C3149      C3154   1.400       .  A
C3149      F3167   1.358       .  S
C3150      C3151   1.399   1_655  A
C3150      C3155   1.471       .  S
C3151      F3156   1.359       .  S
C3152      F3168   1.358       .  S
C3153      C3154   1.410   1_455  A
C3154      F3157   1.356       .  S
C3155      C3158   1.406       .  A
C3155      C3162   1.404       .  A
C3158      C3159   1.395       .  A
C3158      F3163   1.358   1_655  S
C3159      C3160   1.402       .  A
C3159      F3165   1.358       .  S
C3160      C3161   1.402       .  A
C3161      C3162   1.395       .  A
C3161      F3164   1.358       .  S
C3162      F3166   1.358       .  S
C3169      C3170   1.402   1_455  A
C3169      F3187   1.358       .  S
C3170      C3171   1.406       .  A
C3170      C3175   1.480       .  S
C3171      C3172   1.404       .  A
C3171      F3176   1.357       .  S
C3172      C3173   1.408   1_655  A
C3172      F3188   1.357       .  S
C3174      F3177   1.357       .  S
C3175      C3178   1.403       .  A
C3175      C3182   1.406       .  A
C3178      C3179   1.397       .  A
C3178      F3183   1.358       .  S
C3179      C3180   1.410       .  A
C3179      F3185   1.358       .  S
C3180      C3181   1.408       .  A
C3181      C3182   1.402       .  A
C3181      F3184   1.358       .  S
C3182      F3186   1.358       .  S
C3189      C3190   1.406       .  A
C3189      C3194   1.398       .  A
C3189      F3207   1.358       .  S
C3190      C3191   1.405       .  A
C3190      C3195   1.480       .  S
C3191      C3192   1.396       .  A
C3191      F3196   1.358       .  S
C3192      C3193   1.408       .  A
C3192      F3208   1.358       .  S
C3193      C3194   1.408       .  A
C3194      F3197   1.358       .  S
C3195      C3198   1.407       .  A
C3195      C3202   1.407       .  A
C3198      C3199   1.398       .  A
C3198      F3203   1.358       .  S
C3199      C3200   1.405       .  A
C3199      F3205   1.358       .  S
C3200      C3201   1.404       .  A
C3201      C3202   1.397       .  A
C3201      F3204   1.358       .  S
C3202      F3206   1.358       .  S
C3209      C3210   1.403       .  A
C3209      C3214   1.398       .  A
C3209      F3227   1.358       .  S
C3210      C3211   1.403       .  A
C3210      C3215   1.475       .  S
C3211      C3212   1.396       .  A
C3211      F3216   1.358       .  S
C3212      C3213   1.409       .  A
C3212      F3228   1.358       .  S
C3213      C3214   1.409       .  A
C3214      F3217   1.358       .  S
C3215      C3218   1.405       .  A
C3215      C3222   1.406       .  A
C3218      C3219   1.397       .  A
C3218      F3223   1.358       .  S
C3219      C3220   1.404       .  A
C3219      F3225   1.358       .  S
C3220      C3221   1.401       .  A
C3221      C3222   1.396       .  A
C3221      F3224   1.358       .  S
C3222      F3226   1.358       .  S
N3229      C3234   1.350       .  A
N3229      C3233   1.352       .  A
N3229      H3261   1.039       .  S
N3230      C3237   1.353       .  A
N3230      C3238   1.350       .  A
N3231      C3236   1.356       .  A
N3231      C3235   1.354       .  A
N3231      H3262   1.040       .  S
N3232      C3239   1.350       .  A
N3232      C3240   1.350       .  A
C3233      C3241   1.386       .  A
C3233      C3249   1.411       .  A
C3234      C3250   1.411       .  A
C3234      C3242   1.387       .  A
C3235      C3243   1.387       .  A
C3235      C3252   1.419       .  A
C3236      C3251   1.419       .  A
C3236      C3244   1.387       .  A
C3237      C3249   1.412       .  A
C3237      C3245   1.384       .  A
C3238      C3252   1.414       .  A
C3238      C3246   1.388       .  A
C3239      C3247   1.385       .  A
C3239      C3250   1.409       .  A
C3240      C3248   1.387       .  A
C3240      C3251   1.413       .  A
C3241      C3242   1.376       .  A
C3241      H3253   1.082       .  S
C3242      H3254   1.082       .  S
C3243      C3244   1.378       .  A
C3243      H3255   1.082       .  S
C3244      H3256   1.082       .  S
C3245      C3246   1.373       .  A
C3245      H3257   1.082       .  S
C3246      H3258   1.082       .  S
C3247      C3248   1.371       .  A
C3247      H3259   1.082       .  S
C3248      H3260   1.082       .  S
C3249      C4276   1.486       .  S
C3250      C4296   1.477       .  S
C3251      C4256   1.494       .  S
C3252      C4236   1.491       .  S
N3263      C3268   1.352       .  A
N3263      C3267   1.354       .  A
N3263      H3295   1.039       .  S
N3264      C3271   1.353       .  A
N3264      C3272   1.350       .  A
N3265      C3270   1.354       .  A
N3265      C3269   1.352       .  A
N3265      H3296   1.038       .  S
N3266      C3273   1.352       .  A
N3266      C3274   1.353       .  A
C3267      C3275   1.385       .  A
C3267      C3283   1.412       .  A
C3268      C3284   1.415       .  A
C3268      C3276   1.388       .  A
C3269      C3277   1.387       .  A
C3269      C3286   1.416       .  A
C3270      C3285   1.417       .  A
C3270      C3278   1.387       .  A
C3271      C3283   1.409       .  A
C3271      C3279   1.384       .  A
C3272      C3286   1.416       .  A
C3272      C3280   1.390       .  A
C3273      C3281   1.386       .  A
C3273      C3284   1.414       .  A
C3274      C3282   1.387       .  A
C3274      C3285   1.416       .  A
C3275      C3276   1.376       .  A
C3275      H3287   1.082       .  S
C3276      H3288   1.082       .  S
C3277      C3278   1.378       .  A
C3277      H3289   1.082       .  S
C3278      H3290   1.082       .  S
C3279      C3280   1.370       .  A
C3279      H3291   1.082       .  S
C3280      H3292   1.082       .  S
C3281      C3282   1.373       .  A
C3281      H3293   1.082       .  S
C3282      H3294   1.082       .  S
C3283      C4169   1.487       .  S
C3284      C4149   1.486       .  S
C3285      C4196   1.492       .  S
C3286      C4209   1.483       .  S
O3297      C3305   1.268       .  A
O3297     Co3317   2.006       .  S
O3298      C3306   1.246       .  A
O3298     Co3318   1.961       .  S
O3299      C3307   1.270       .  A
O3299     Co3319   1.993       .  S
O3300      C3308   1.258       .  A
O3301      C3307   1.267       .  A
O3301     Co3318   2.001       .  S
O3302      C3308   1.246       .  A
O3302     Co3317   1.958       .  S
O3303      C3306   1.254       .  A
O3303     Co3320   1.998       .  S
O3304      C3305   1.262       .  A
C3305      C4289   1.477       .  S
C3306      C4069   1.485       .  S
C3307      C4269   1.489       .  S
C3308      C4089   1.488       .  S
O3309      C3322   1.267       .  A
O3309     Co3317   1.881       .  S
O3310      C3323   1.258       .  A
O3310     Co3318   1.995       .  S
O3311      C3324   1.267       .  A
O3312      C3325   1.303       .  A
O3312     Co3320   2.090       .  S
O3313      C3325   1.266       .  A
O3313     Co3318   1.857       .  S
O3314      C3324   1.255       .  A
O3314     Co3317   1.978       .  S
O3315      C3322   1.300       .  A
O3316      C3323   1.262       .  A
O3316     Co3319   2.001       .  S
Co3318     O3321   1.906       .  S
Co3319     O3321   2.108       .  S
Co3320     O3321   2.269       .  S
C3322      C4129   1.481       .  S
C3323      C4189   1.493       .  S
C3324      C4216   1.483       .  S
C3325      C4109   1.469       .  S
N3326      C3331   1.353       .  A
N3326      C3330   1.353       .  A
N3326      H3358   1.039       .  S
N3327      C3334   1.350       .  A
N3327      C3335   1.350       .  A
N3328      C3333   1.352       .  A
N3328      C3332   1.352       .  A
N3328      H3359   1.040       .  S
N3329      C3336   1.351       .  A
N3329      C3337   1.350       .  A
C3330      C3338   1.387       .  A
C3330      C3346   1.415       .  A
C3331      C3347   1.415       .  A
C3331      C3339   1.387       .  A
C3332      C3340   1.387       .  A
C3332      C3349   1.411       .  A
C3333      C3348   1.413       .  A
C3333      C3341   1.388       .  A
C3334      C3346   1.412       .  A
C3334      C3342   1.388       .  A
C3335      C3349   1.408       .  A
C3335      C3343   1.385       .  A
C3336      C3344   1.387       .  A
C3336      C3347   1.413       .  A
C3337      C3345   1.386       .  A
C3337      C3348   1.411       .  A
C3338      C3339   1.376       .  A
C3338      H3350   1.082       .  S
C3339      H3351   1.082       .  S
C3340      C3341   1.372       .  A
C3340      H3352   1.082       .  S
C3341      H3353   1.082       .  S
C3342      C3343   1.371       .  A
C3342      H3354   1.082       .  S
C3343      H3355   1.082       .  S
C3344      C3345   1.372       .  A
C3344      H3356   1.082       .  S
C3345      H3357   1.082       .  S
C3346      C4076   1.481       .  S
C3347      C4096   1.484       .  S
C3348      C4049   1.483       .  S
C3349      C4036   1.479       .  S
N3360      C3365   1.352       .  A
N3360      C3364   1.354       .  A
N3360      H3392   1.040       .  S
N3361      C3368   1.348       .  A
N3361      C3369   1.347       .  A
N3362      C3367   1.351       .  A
N3362      C3366   1.350       .  A
N3362      H3393   1.038       .  S
N3363      C3370   1.350       .  A
N3363      C3371   1.351       .  A
C3364      C3372   1.386       .  A
C3364      C3380   1.414       .  A
C3365      C3381   1.413       .  A
C3365      C3373   1.387       .  A
C3366      C3374   1.387       .  A
C3366      C3383   1.411       .  A
C3367      C3382   1.411       .  A
C3367      C3375   1.387       .  A
C3368      C3380   1.406       .  A
C3368      C3376   1.385       .  A
C3369      C3383   1.407       .  A
C3369      C3377   1.387       .  A
C3370      C3378   1.386       .  A
C3370      C3381   1.412       .  A
C3371      C3379   1.386       .  A
C3371      C3382   1.412       .  A
C3372      C3373   1.373       .  A
C3372      H3384   1.082       .  S
C3373      H3385   1.082       .  S
C3374      C3375   1.375       .  A
C3374      H3386   1.082       .  S
C3375      H3387   1.082       .  S
C3376      C3377   1.371       .  A
C3376      H3388   1.082       .  S
C3377      H3389   1.082       .  S
C3378      C3379   1.374       .  A
C3378      H3390   1.082       .  S
C3379      H3391   1.082       .  S
C3380      C3989   1.485       .  S
C3381      C4009   1.483       .  S
C3382      C4136   1.482       .  S
C3383      C4116   1.471       .  S
C3394      N3412   1.348       .  A
N3395      N3412   1.321       .  A
N3395      N3417   1.320       .  A
N3395     Co3432   2.084       .  S
C3396      N3421   1.345       .  A
C3396      H3441   1.081       .  S
C3396      C3434   1.466       .  S
H3397      C3438   1.081       .  S
C3398      N3422   1.349       .  A
C3398      H3427   1.081       .  S
C3398      C3402   1.469       .  S
Co3399     N3407   2.100   1_545  S
Co3399     N3415   2.069   1_545  S
Co3399    Cl3443   2.450       .  S
N3400      C3438   1.334       .  A
N3400      N3407   1.320       .  A
N3400     Co3401   2.076       .  S
Co3401     N3404   2.074       .  S
Co3401     N3421   2.084       .  S
Co3401     N3408   2.087       .  S
Co3401    Cl3443   2.451   1_565  S
C3402      N3440   1.344       .  A
C3402      C4176   1.478       .  S
N3403      N3410   1.320       .  A
N3403      N3433   1.329       .  A
N3403     Co3436   2.098       .  S
N3404      N3422   1.320       .  A
N3404      N3440   1.320       .  A
H3406      C3431   1.081   1_655  S
N3408      N3426   1.319       .  A
N3408      N3413   1.328       .  A
C3409      N3413   1.355       .  A
C3409      C3437   1.461       .  S
C3409      C3936   1.488       .  S
N3410      C3425   1.336       .  A
N3410     Co3432   2.079       .  S
C3411      H3445   1.080       .  S
C3414      N3435   1.356       .  A
N3415      N3421   1.319       .  A
N3416      C3442   1.344       .  A
N3416      N3418   1.319       .  A
N3416     Co3432   2.092       .  S
N3418      N3446   1.322       .  A
N3418     Co3436   2.085       .  S
H3419      C3442   1.080       .  S
H3420      C3437   1.080       .  S
N3423      N3435   1.328       .  A
N3423      N3439   1.318       .  A
N3423     Co3432   2.092       .  S
C3424      C3438   1.453       .  S
C3425      H3429   1.081       .  S
C3425      C3444   1.453       .  S
N3426      C3437   1.336       .  A
C3430      N3446   1.349       .  A
C3430      C3442   1.471       .  S
C3430      C3969   1.491       .  S
N3433      C3444   1.355       .  A
C3444      C4156   1.478       .  S
O3447      C3455   1.270       .  A
O3447     Co3467   1.871   1_556  S
O3448      C3456   1.265       .  A
O3448     Co3468   1.980   1_554  S
O3449      C3457   1.292       .  A
O3449     Co3469   1.989       .  S
O3450      C3458   1.262       .  A
O3450     Co3470   1.996       .  S
O3451      C3457   1.286       .  A
O3451     Co3468   1.962       .  S
O3452      C3458   1.260       .  A
O3452     Co3467   1.980       .  S
O3453      C3456   1.270       .  A
O3453     Co3470   2.001       .  S
O3454      C3455   1.304       .  A
O3454     Co3469   2.106       .  S
C3456      C3756   1.481       .  S
C3457      C3869   1.485       .  S
O3459      C3472   1.278       .  A
O3459     Co3467   1.998       .  S
O3460      C3473   1.248       .  A
O3460     Co3468   1.963       .  S
O3461      C3474   1.296       .  A
O3461     Co3469   2.087       .  S
O3462      C3475   1.266       .  A
O3462     Co3470   1.974       .  S
O3463      C3475   1.273       .  A
O3463     Co3468   2.005   1_554  S
O3464      C3474   1.256       .  A
O3464     Co3467   1.943   1_556  S
O3465      C3472   1.273       .  A
O3465     Co3470   1.975       .  S
O3466      C3473   1.275       .  A
O3466     Co3469   2.038       .  S
Co3467     O3471   1.869       .  S
Co3468     O3471   1.983   1_556  S
Co3469     O3471   2.059   1_556  S
Co3470     O3471   2.023       .  S
C3473      C3829   1.478       .  S
C3475      C3789   1.483       .  S
N3476      C3481   1.356       .  A
N3476      C3480   1.353       .  A
N3476      H3508   1.038       .  S
N3477      C3484   1.352       .  A
N3477      C3485   1.354       .  A
N3478      C3483   1.351       .  A
N3478      C3482   1.351       .  A
N3478      H3509   1.039       .  S
N3479      C3486   1.350       .  A
N3479      C3487   1.350       .  A
C3480      C3488   1.389       .  A
C3480      C3496   1.419       .  A
C3481      C3497   1.416       .  A
C3481      C3489   1.386       .  A
C3482      C3490   1.386       .  A
C3482      C3499   1.411       .  A
C3483      C3498   1.409       .  A
C3483      C3491   1.387       .  A
C3484      C3496   1.417       .  A
C3484      C3492   1.387       .  A
C3485      C3499   1.416       .  A
C3485      C3493   1.385       .  A
C3486      C3494   1.387       .  A
C3486      C3497   1.413       .  A
C3487      C3495   1.386       .  A
C3487      C3498   1.411       .  A
C3488      C3489   1.375       .  A
C3488      H3500   1.083       .  S
C3489      H3501   1.082       .  S
C3490      C3491   1.370       .  A
C3490      H3502   1.082       .  S
C3491      H3503   1.081       .  S
C3492      C3493   1.378       .  A
C3492      H3504   1.082       .  S
C3493      H3505   1.082       .  S
C3494      C3495   1.375       .  A
C3494      H3506   1.082       .  S
C3495      H3507   1.082       .  S
C3496      C3836   1.489       .  S
C3497      C3716   1.487       .  S
C3498      C3729   1.480       .  S
C3499      C3856   1.491       .  S
N3510      C3515   1.352       .  A
N3510      C3514   1.351       .  A
N3510      H3542   1.039       .  S
N3511      C3518   1.351       .  A
N3511      C3519   1.352       .  A
N3512      C3517   1.350       .  A
N3512      C3516   1.350       .  A
N3512      H3543   1.037       .  S
N3513      C3520   1.351       .  A
N3513      C3521   1.350       .  A
C3514      C3522   1.388       .  A
C3514      C3530   1.413       .  A
C3515      C3531   1.412       .  A
C3515      C3523   1.386       .  A
C3516      C3524   1.387       .  A
C3516      C3533   1.411       .  A
C3517      C3532   1.411       .  A
C3517      C3525   1.387       .  A
C3518      C3530   1.413       .  A
C3518      C3526   1.386       .  A
C3519      C3533   1.413       .  A
C3519      C3527   1.386       .  A
C3520      C3528   1.386       .  A
C3520      C3531   1.410       .  A
C3521      C3529   1.386       .  A
C3521      C3532   1.410       .  A
C3522      C3523   1.377       .  A
C3522      H3534   1.082       .  S
C3523      H3535   1.082       .  S
C3524      C3525   1.377       .  A
C3524      H3536   1.082       .  S
C3525      H3537   1.082       .  S
C3526      C3527   1.373       .  A
C3526      H3538   1.082       .  S
C3527      H3539   1.082       .  S
C3528      C3529   1.370       .  A
C3528      H3540   1.082       .  S
C3529      H3541   1.082       .  S
C3530      C3876   1.483       .  S
C3531      C3896   1.485       .  S
C3532      C3696   1.476       .  S
C3533      C3669   1.480       .  S
C3544      C3581   1.455       .  S
N3545      N3567   1.319       .  A
N3545     Co3582   2.088       .  S
C3546      N3571   1.344       .  A
C3546      H3591   1.082       .  S
C3546      C3584   1.462       .  S
H3547      C3588   1.082       .  S
C3548      N3572   1.344       .  A
C3548      H3577   1.081       .  S
C3548      C3552   1.470       .  S
Co3549     N3567   2.071       .  S
Co3549     N3557   2.073       .  S
Co3549    Cl3593   2.428       .  S
N3550      C3588   1.343       .  A
N3550      N3557   1.318       .  A
N3550     Co3551   2.082       .  S
Co3551     N3554   2.073       .  S
Co3551    Cl3593   2.461       .  S
C3552      N3590   1.348       .  A
C3552      C3709   1.484       .  S
N3553      N3560   1.319       .  A
N3553      N3583   1.324       .  A
N3553     Co3586   2.082       .  S
N3554      N3572   1.319       .  A
N3554      N3590   1.320       .  A
N3555      C3584   1.348       .  A
N3555      N3565   1.322       .  A
H3556      C3581   1.081       .  S
N3557      N3578   1.321       .  A
N3558      N3576   1.318       .  A
N3558      N3563   1.322       .  A
C3559      N3563   1.350       .  A
C3559      C3587   1.464       .  S
C3559      C3676   1.478       .  S
N3560     Co3582   2.091       .  S
C3561      N3589   1.338       .  A
C3561      H3595   1.082       .  S
C3561      C3564   1.460       .  S
N3565      N3571   1.319       .  A
N3566      N3568   1.318       .  A
N3567      C3581   1.334       .  A
N3568      N3596   1.322       .  A
H3569      C3592   1.081       .  S
H3570      C3587   1.081       .  S
N3572     Co3586   2.093       .  S
N3573      N3589   1.317       .  A
C3574      N3578   1.346       .  A
C3574      C3588   1.461       .  S
C3574      C4016   1.467       .  S
C3575      H3579   1.080       .  S
C3575      C3594   1.468   1_655  S
N3576      C3587   1.339       .  A
C3580      C3592   1.462   1_455  S
C3580      C3689   1.479   1_455  S
Co3582    Cl3593   2.459       .  S
C3584      C3996   1.473       .  S
Co3586    Cl3593   2.441       .  S
C3594      C3736   1.487   1_455  S
N3597      C3602   1.356       .  A
N3597      C3601   1.355       .  A
N3597      H3629   1.039       .  S
N3598      C3605   1.352       .  A
N3598      C3606   1.352       .  A
N3599      C3604   1.353       .  A
N3599      C3603   1.354       .  A
N3599      H3630   1.040       .  S
N3600      C3607   1.353       .  A
N3600      C3608   1.352       .  A
C3601      C3609   1.387       .  A
C3601      C3617   1.419       .  A
C3602      C3618   1.419       .  A
C3602      C3610   1.386       .  A
C3603      C3611   1.387       .  A
C3603      C3620   1.416       .  A
C3604      C3619   1.415       .  A
C3604      C3612   1.387       .  A
C3605      C3617   1.415       .  A
C3605      C3613   1.387       .  A
C3606      C3620   1.413       .  A
C3606      C3614   1.385       .  A
C3607      C3615   1.387       .  A
C3607      C3618   1.416       .  A
C3608      C3616   1.385       .  A
C3608      C3619   1.412       .  A
C3609      C3610   1.379       .  A
C3609      H3621   1.082       .  S
C3610      H3622   1.082       .  S
C3611      C3612   1.376       .  A
C3611      H3623   1.082       .  S
C3612      H3624   1.082       .  S
C3613      C3614   1.374       .  A
C3613      H3625   1.082       .  S
C3614      H3626   1.083       .  S
C3615      C3616   1.371       .  A
C3615      H3627   1.082       .  S
C3616      H3628   1.082       .  S
C3617      C3749   1.490       .  S
C3618      C3776   1.499       .  S
C3619      C3956   1.487       .  S
C3620      C3976   1.489       .  S
N3631      C3636   1.354       .  A
N3631      C3635   1.355       .  A
N3631      H3663   1.039       .  S
N3632      C3639   1.348       .  A
N3632      C3640   1.350       .  A
N3633      C3638   1.350       .  A
N3633      C3637   1.352       .  A
N3633      H3664   1.038       .  S
N3634      C3641   1.350       .  A
N3634      C3642   1.350       .  A
C3635      C3643   1.387       .  A
C3635      C3651   1.417       .  A
C3636      C3652   1.417       .  A
C3636      C3644   1.387       .  A
C3637      C3645   1.388       .  A
C3637      C3654   1.413       .  A
C3638      C3653   1.411       .  A
C3638      C3646   1.387       .  A
C3639      C3651   1.411       .  A
C3639      C3647   1.387       .  A
C3640      C3654   1.409       .  A
C3640      C3648   1.385       .  A
C3641      C3649   1.387       .  A
C3641      C3652   1.412       .  A
C3642      C3650   1.386       .  A
C3642      C3653   1.410       .  A
C3643      C3644   1.377       .  A
C3643      H3655   1.082       .  S
C3644      H3656   1.082       .  S
C3645      C3646   1.372       .  A
C3645      H3657   1.082       .  S
C3646      H3658   1.082       .  S
C3647      C3648   1.370       .  A
C3647      H3659   1.082       .  S
C3648      H3660   1.082       .  S
C3649      C3650   1.373       .  A
C3649      H3661   1.082       .  S
C3650      H3662   1.082       .  S
C3651      C3929   1.486       .  S
C3652      C3909   1.485       .  S
C3653      C3809   1.477       .  S
C3654      C3796   1.480       .  S
C3665      C3666   1.403       .  A
C3665      C3670   1.395       .  A
C3665      F3683   1.358       .  S
C3666      C3667   1.405       .  A
C3666      C3671   1.473       .  S
C3667      C3668   1.400       .  A
C3667      F3672   1.358       .  S
C3668      C3669   1.404       .  A
C3668      F3684   1.357       .  S
C3669      C3670   1.403       .  A
C3670      F3673   1.358       .  S
C3671      C3674   1.402       .  A
C3671      C3678   1.401       .  A
C3674      C3675   1.396       .  A
C3674      F3679   1.358       .  S
C3675      C3676   1.409       .  A
C3675      F3681   1.356       .  S
C3676      C3677   1.409       .  A
C3677      C3678   1.399       .  A
C3677      F3680   1.358       .  S
C3678      F3682   1.358       .  S
C3685      C3686   1.401       .  A
C3685      C3690   1.395       .  A
C3685      F3703   1.358       .  S
C3686      C3687   1.401       .  A
C3686      C3691   1.469       .  S
C3687      C3688   1.398       .  A
C3687      F3692   1.358       .  S
C3688      C3689   1.410       .  A
C3688      F3704   1.357       .  S
C3689      C3690   1.409       .  A
C3691      C3694   1.404       .  A
C3691      C3698   1.403       .  A
C3694      C3695   1.400       .  A
C3694      F3699   1.357       .  S
C3695      C3696   1.404       .  A
C3695      F3701   1.357       .  S
C3696      C3697   1.402       .  A
C3697      C3698   1.392       .  A
C3697      F3700   1.358       .  S
C3698      F3702   1.358       .  S
C3705      C3706   1.404       .  A
C3705      C3710   1.401       .  A
C3705      F3723   1.357       .  S
C3706      C3707   1.401       .  A
C3706      C3711   1.477       .  S
C3707      C3708   1.396       .  A
C3707      F3712   1.358       .  S
C3708      C3709   1.412       .  A
C3708      F3724   1.358       .  S
C3709      C3710   1.409       .  A
C3710      F3713   1.357       .  S
C3711      C3714   1.405       .  A
C3711      C3718   1.404       .  A
C3714      C3715   1.402       .  A
C3714      F3719   1.358       .  S
C3715      C3716   1.406       .  A
C3715      F3721   1.357       .  S
C3716      C3717   1.404       .  A
C3717      C3718   1.398       .  A
C3717      F3720   1.357       .  S
C3718      F3722   1.358       .  S
C3725      C3726   1.407       .  A
C3725      C3730   1.397       .  A
C3725      F3743   1.358       .  S
C3726      C3727   1.407       .  A
C3726      C3731   1.481       .  S
C3727      C3728   1.398       .  A
C3727      F3732   1.358       .  S
C3728      C3729   1.403       .  A
C3728      F3744   1.358       .  S
C3729      C3730   1.402       .  A
C3730      F3733   1.357       .  S
C3731      C3734   1.403       .  A
C3731      C3738   1.405       .  A
C3734      C3735   1.394       .  A
C3734      F3739   1.358       .  S
C3735      C3736   1.408       .  A
C3735      F3741   1.356       .  S
C3736      C3737   1.413       .  A
C3737      C3738   1.401       .  A
C3738      F3742   1.358       .  S
C3745      C3746   1.407       .  A
C3745      C3750   1.402       .  A
C3745      F3763   1.358       .  S
C3746      C3747   1.403       .  A
C3746      C3751   1.481       .  S
C3747      C3748   1.402       .  A
C3747      F3752   1.357       .  S
C3748      C3749   1.406       .  A
C3748      F3764   1.357       .  S
C3749      C3750   1.405       .  A
C3750      F3753   1.358       .  S
C3751      C3754   1.405       .  A
C3751      C3758   1.403       .  A
C3754      C3755   1.404       .  A
C3754      F3759   1.358       .  S
C3755      C3756   1.410       .  A
C3755      F3761   1.357       .  S
C3756      C3757   1.407       .  A
C3757      C3758   1.398       .  A
C3757      F3760   1.358       .  S
C3758      F3762   1.357       .  S
C3765      C3766   1.402       .  A
C3765      C3770   1.401   1_655  A
C3765      F3783   1.358       .  S
C3766      C3767   1.404       .  A
C3766      C3771   1.486       .  S
C3767      C3768   1.407       .  A
C3767      F3772   1.358       .  S
C3768      C3769   1.414   1_655  A
C3768      F3784   1.357       .  S
C3769      C3770   1.412       .  A
C3771      C3774   1.406       .  A
C3771      C3778   1.405       .  A
C3774      C3775   1.402       .  A
C3774      F3779   1.358       .  S
C3775      C3776   1.406       .  A
C3775      F3781   1.358       .  S
C3776      C3777   1.411       .  A
C3777      C3778   1.404       .  A
C3777      F3780   1.358       .  S
C3778      F3782   1.357       .  S
C3785      C3786   1.402       .  A
C3785      C3790   1.396       .  A
C3785      F3803   1.358       .  S
C3786      C3787   1.404       .  A
C3786      C3791   1.476       .  S
C3787      C3788   1.396       .  A
C3787      F3792   1.358       .  S
C3788      C3789   1.410       .  A
C3788      F3804   1.358       .  S
C3789      C3790   1.413       .  A
C3790      F3793   1.358       .  S
C3791      C3794   1.407       .  A
C3791      C3798   1.405       .  A
C3794      C3795   1.395       .  A
C3794      F3799   1.358       .  S
C3795      C3796   1.402       .  A
C3795      F3801   1.358       .  S
C3796      C3797   1.404       .  A
C3797      C3798   1.397       .  A
C3797      F3800   1.358       .  S
C3798      F3802   1.358       .  S
C3805      C3806   1.407       .  A
C3805      C3810   1.396       .  A
C3805      F3823   1.358       .  S
C3806      C3807   1.406       .  A
C3806      C3811   1.477       .  S
C3807      C3808   1.396       .  A
C3807      F3812   1.358       .  S
C3808      C3809   1.403       .  A
C3808      F3824   1.358       .  S
C3809      C3810   1.401       .  A
C3810      F3813   1.358       .  S
C3811      C3814   1.404       .  A
C3811      C3818   1.402       .  A
C3814      C3815   1.397       .  A
C3814      F3819   1.358       .  S
C3815      C3816   1.413       .  A
C3815      F3821   1.358       .  S
C3816      C3817   1.411       .  A
C3817      C3818   1.395       .  A
C3818      F3822   1.358       .  S
C3825      C3826   1.404       .  A
C3825      C3830   1.398       .  A
C3825      F3843   1.357       .  S
C3826      C3827   1.404       .  A
C3826      C3831   1.480       .  S
C3827      C3828   1.400       .  A
C3827      F3832   1.358       .  S
C3828      C3829   1.410       .  A
C3828      F3844   1.358       .  S
C3829      C3830   1.409       .  A
C3830      F3833   1.358       .  S
C3831      C3834   1.401       .  A
C3831      C3838   1.409       .  A
C3834      C3835   1.396       .  A
C3834      F3839   1.358       .  S
C3835      C3836   1.407       .  A
C3835      F3841   1.358       .  S
C3836      C3837   1.406       .  A
C3837      C3838   1.403       .  A
C3837      F3840   1.358       .  S
C3838      F3842   1.358       .  S
C3845      C3846   1.406       .  A
C3845      C3850   1.405   1_655  A
C3845      F3863   1.357       .  S
C3846      C3847   1.401       .  A
C3846      C3851   1.484       .  S
C3847      C3848   1.398       .  A
C3847      F3852   1.358       .  S
C3848      C3849   1.412   1_655  A
C3848      F3864   1.358       .  S
C3849      C3850   1.410       .  A
C3851      C3854   1.408       .  A
C3851      C3858   1.404       .  A
C3854      C3855   1.402       .  A
C3854      F3859   1.357       .  S
C3855      C3856   1.404       .  A
C3855      F3861   1.357       .  S
C3856      C3857   1.409       .  A
C3857      C3858   1.399       .  A
C3857      F3860   1.358       .  S
C3858      F3862   1.358       .  S
C3865      C3866   1.401       .  A
C3865      C3870   1.396       .  A
C3865      F3883   1.358       .  S
C3866      C3867   1.403       .  A
C3866      C3871   1.477       .  S
C3867      C3868   1.399       .  A
C3867      F3872   1.358       .  S
C3868      C3869   1.410       .  A
C3868      F3884   1.358       .  S
C3869      C3870   1.413       .  A
C3870      F3873   1.358       .  S
C3871      C3874   1.404       .  A
C3871      C3878   1.406       .  A
C3874      C3875   1.398       .  A
C3874      F3879   1.358       .  S
C3875      C3876   1.405       .  A
C3875      F3881   1.358       .  S
C3876      C3877   1.403       .  A
C3877      C3878   1.397       .  A
C3877      F3880   1.358       .  S
C3878      F3882   1.357       .  S
C3885      C3886   1.407       .  A
C3885      C3890   1.402       .  A
C3885      F3903   1.358       .  S
C3886      C3887   1.403       .  A
C3886      C3891   1.483       .  S
C3887      C3888   1.392       .  A
C3887      F3892   1.358       .  S
C3888      C3889   1.411       .  A
C3888      F3904   1.358       .  S
C3889      C3890   1.411       .  A
C3890      F3893   1.358   1_655  S
C3891      C3894   1.407       .  A
C3891      C3898   1.407       .  A
C3894      C3895   1.397       .  A
C3894      F3899   1.358       .  S
C3895      C3896   1.404       .  A
C3895      F3901   1.358       .  S
C3896      C3897   1.405       .  A
C3897      C3898   1.397       .  A
C3897      F3900   1.358       .  S
C3898      F3902   1.356       .  S
C3905      C3906   1.402       .  A
C3905      C3910   1.397       .  A
C3905      F3923   1.358       .  S
C3906      C3907   1.403       .  A
C3906      C3911   1.470       .  S
C3907      C3908   1.398       .  A
C3907      F3912   1.358       .  S
C3908      C3909   1.405       .  A
C3908      F3924   1.357       .  S
C3909      C3910   1.407       .  A
C3910      F3913   1.358       .  S
C3911      C3914   1.398       .  A
C3911      C3918   1.403       .  A
C3914      C3915   1.392       .  A
C3914      F3919   1.358       .  S
C3915      C3916   1.412       .  A
C3915      F3921   1.358       .  S
C3916      C3917   1.409   1_655  A
C3917      C3918   1.401   1_455  A
C3917      F3920   1.357       .  S
C3918      F3922   1.357       .  S
C3925      C3926   1.405       .  A
C3925      C3930   1.395       .  A
C3925      F3943   1.358       .  S
C3926      C3927   1.407       .  A
C3926      C3931   1.479       .  S
C3927      C3928   1.401       .  A
C3927      F3932   1.358       .  S
C3928      C3929   1.405       .  A
C3928      F3944   1.358       .  S
C3929      C3930   1.406       .  A
C3930      F3933   1.358       .  S
C3931      C3934   1.406       .  A
C3931      C3938   1.400       .  A
C3934      C3935   1.405       .  A
C3934      F3939   1.358       .  S
C3935      C3936   1.410       .  A
C3935      F3941   1.357       .  S
C3936      C3937   1.409       .  A
C3937      C3938   1.391       .  A
C3937      F3940   1.351       .  S
C3938      F3942   1.359       .  S
C3945      C3946   1.408       .  A
C3945      C3950   1.403       .  A
C3945      F3963   1.358       .  S
C3946      C3947   1.404       .  A
C3946      C3951   1.485       .  S
C3947      C3948   1.394       .  A
C3947      F3952   1.358       .  S
C3948      C3949   1.411       .  A
C3948      F3964   1.357       .  S
C3949      C3950   1.407       .  A
C3951      C3954   1.408       .  A
C3951      C3958   1.408       .  A
C3954      C3955   1.398       .  A
C3954      F3959   1.358       .  S
C3955      C3956   1.405       .  A
C3955      F3961   1.358       .  S
C3956      C3957   1.404       .  A
C3957      C3958   1.399       .  A
C3957      F3960   1.357       .  S
C3958      F3962   1.358       .  S
C3965      C3966   1.404       .  A
C3965      C3970   1.403       .  A
C3965      F3983   1.357       .  S
C3966      C3967   1.402       .  A
C3966      C3971   1.482       .  S
C3967      C3968   1.398       .  A
C3967      F3972   1.358       .  S
C3968      C3969   1.413       .  A
C3968      F3984   1.357       .  S
C3969      C3970   1.411       .  A
C3970      F3973   1.355       .  S
C3971      C3974   1.406       .  A
C3971      C3978   1.405       .  A
C3974      C3975   1.402       .  A
C3974      F3979   1.358       .  S
C3975      C3976   1.405       .  A
C3975      F3981   1.357       .  S
C3976      C3977   1.405       .  A
C3977      C3978   1.399       .  A
C3977      F3980   1.358       .  S
C3978      F3982   1.358       .  S
C3985      C3986   1.407       .  A
C3985      C3990   1.395       .  A
C3985      F4003   1.358       .  S
C3986      C3987   1.406       .  A
C3986      C3991   1.480       .  S
C3987      C3988   1.400       .  A
C3987      F3992   1.357       .  S
C3988      C3989   1.405       .  A
C3988      F4004   1.358       .  S
C3989      C3990   1.404       .  A
C3990      F3993   1.358       .  S
C3991      C3994   1.407       .  A
C3991      C3998   1.405       .  A
C3994      C3995   1.403       .  A
C3994      F3999   1.358       .  S
C3995      C3996   1.407       .  A
C3995      F4001   1.357       .  S
C3996      C3997   1.403       .  A
C3997      C3998   1.394       .  A
C3997      F4000   1.358       .  S
C3998      F4002   1.358       .  S
C4005      C4006   1.407       .  A
C4005      C4010   1.395       .  A
C4005      F4023   1.358       .  S
C4006      C4007   1.406       .  A
C4006      C4011   1.479       .  S
C4007      C4008   1.398       .  A
C4007      F4012   1.358       .  S
C4008      C4009   1.406       .  A
C4008      F4024   1.358       .  S
C4009      C4010   1.403       .  A
C4010      F4013   1.358       .  S
C4011      C4014   1.406       .  A
C4011      C4018   1.407       .  A
C4014      C4015   1.395       .  A
C4014      F4019   1.358       .  S
C4015      C4016   1.403       .  A
C4015      F4021   1.358       .  S
C4016      C4017   1.404       .  A
C4017      C4018   1.399       .  A
C4017      F4020   1.357       .  S
C4018      F4022   1.358       .  S
C4025      C4026   1.405       .  A
C4025      C4030   1.395       .  A
C4025      F4043   1.358       .  S
C4026      C4027   1.406       .  A
C4026      C4031   1.477       .  S
C4027      C4028   1.400       .  A
C4027      F4032   1.358       .  S
C4028      C4029   1.404       .  A
C4028      F4044   1.358       .  S
C4029      C4030   1.402       .  A
C4031      C4034   1.407       .  A
C4031      C4038   1.406       .  A
C4034      C4035   1.400       .  A
C4034      F4039   1.358       .  S
C4035      C4036   1.403       .  A
C4035      F4041   1.358       .  S
C4036      C4037   1.401       .  A
C4037      C4038   1.393       .  A
C4037      F4040   1.358       .  S
C4038      F4042   1.358       .  S
C4045      C4046   1.407       .  A
C4045      C4050   1.395       .  A
C4045      F4063   1.358       .  S
C4046      C4047   1.405       .  A
C4046      C4051   1.478       .  S
C4047      C4048   1.398       .  A
C4047      F4052   1.358       .  S
C4048      C4049   1.405       .  A
C4048      F4064   1.358       .  S
C4049      C4050   1.404       .  A
C4050      F4053   1.358       .  S
C4051      C4054   1.406       .  A
C4051      C4058   1.404       .  A
C4054      C4055   1.401       .  A
C4054      F4059   1.358       .  S
C4055      C4056   1.406       .  A
C4055      F4061   1.357       .  S
C4057      F4060   1.357       .  S
C4065      C4066   1.401       .  A
C4065      C4070   1.398       .  A
C4065      F4083   1.358       .  S
C4066      C4067   1.403       .  A
C4066      C4071   1.476       .  S
C4067      C4068   1.399       .  A
C4067      F4072   1.358       .  S
C4068      C4069   1.411       .  A
C4068      F4084   1.358       .  S
C4069      C4070   1.412       .  A
C4070      F4073   1.357       .  S
C4071      C4074   1.406       .  A
C4071      C4078   1.405       .  A
C4074      C4075   1.398       .  A
C4074      F4079   1.358       .  S
C4075      C4076   1.403       .  A
C4075      F4081   1.358       .  S
C4076      C4077   1.404       .  A
C4077      C4078   1.398       .  A
C4077      F4080   1.358       .  S
C4078      F4082   1.358       .  S
C4085      C4086   1.404       .  A
C4085      C4090   1.399       .  A
C4085      F4103   1.358       .  S
C4086      C4087   1.404       .  A
C4086      C4091   1.483       .  S
C4087      C4088   1.400       .  A
C4087      F4092   1.358       .  S
C4088      C4089   1.413       .  A
C4088      F4104   1.357       .  S
C4089      C4090   1.410       .  A
C4090      F4093   1.358       .  S
C4091      C4094   1.408       .  A
C4091      C4098   1.406       .  A
C4094      C4095   1.399       .  A
C4094      F4099   1.358       .  S
C4095      C4096   1.403       .  A
C4095      F4101   1.358       .  S
C4096      C4097   1.404       .  A
C4097      C4098   1.399       .  A
C4097      F4100   1.358       .  S
C4098      F4102   1.357       .  S
C4105      C4106   1.405       .  A
C4105      C4110   1.397       .  A
C4105      F4123   1.358       .  S
C4106      C4107   1.400       .  A
C4106      C4111   1.468       .  S
C4107      C4108   1.390       .  A
C4107      F4112   1.359       .  S
C4108      C4109   1.410       .  A
C4108      F4124   1.359       .  S
C4109      C4110   1.406       .  A
C4110      F4113   1.358       .  S
C4111      C4114   1.407       .  A
C4111      C4118   1.402       .  A
C4114      C4115   1.392       .  A
C4114      F4119   1.359       .  S
C4115      C4116   1.400       .  A
C4115      F4121   1.358       .  S
C4116      C4117   1.403       .  A
C4117      C4118   1.395       .  A
C4117      F4120   1.357       .  S
C4118      F4122   1.358       .  S
C4125      C4126   1.403       .  A
C4125      C4130   1.396       .  A
C4125      F4143   1.358       .  S
C4126      C4127   1.404       .  A
C4126      C4131   1.478       .  S
C4127      C4128   1.401       .  A
C4127      F4132   1.358       .  S
C4128      C4129   1.409       .  A
C4128      F4144   1.358       .  S
C4129      C4130   1.410       .  A
C4130      F4133   1.358       .  S
C4131      C4134   1.406       .  A
C4131      C4138   1.406       .  A
C4134      C4135   1.394       .  A
C4134      F4139   1.358       .  S
C4135      C4136   1.402       .  A
C4135      F4141   1.358       .  S
C4136      C4137   1.406       .  A
C4137      C4138   1.403       .  A
C4137      F4140   1.357       .  S
C4138      F4142   1.357       .  S
C4145      C4146   1.407       .  A
C4145      C4150   1.400       .  A
C4145      F4163   1.358       .  S
C4146      C4147   1.406       .  A
C4146      C4151   1.482       .  S
C4147      C4148   1.397       .  A
C4147      F4152   1.358       .  S
C4148      C4149   1.404       .  A
C4148      F4164   1.358       .  S
C4149      C4150   1.406       .  A
C4150      F4153   1.358       .  S
C4151      C4154   1.407       .  A
C4151      C4158   1.404       .  A
C4154      C4155   1.402       .  A
C4154      F4159   1.358       .  S
C4155      C4156   1.404       .  A
C4155      F4161   1.357       .  S
C4156      C4157   1.408       .  A
C4157      C4158   1.398       .  A
C4157      F4160   1.358       .  S
C4158      F4162   1.358       .  S
C4165      C4166   1.406       .  A
C4165      C4170   1.401       .  A
C4165      F4183   1.358       .  S
C4166      C4167   1.405       .  A
C4166      C4171   1.479       .  S
C4167      C4168   1.400       .  A
C4167      F4172   1.358       .  S
C4168      C4169   1.405       .  A
C4168      F4184   1.357       .  S
C4169      C4170   1.405       .  A
C4170      F4173   1.358       .  S
C4171      C4174   1.402       .  A
C4171      C4178   1.406       .  A
C4174      C4175   1.397       .  A
C4174      F4179   1.358       .  S
C4175      C4176   1.409       .  A
C4175      F4181   1.358       .  S
C4176      C4177   1.406       .  A
C4177      C4178   1.405       .  A
C4177      F4180   1.357       .  S
C4178      F4182   1.357       .  S
C4185      C4186   1.401       .  A
C4185      C4190   1.394       .  A
C4185      F4203   1.358       .  S
C4186      C4187   1.406       .  A
C4186      C4191   1.484       .  S
C4187      C4188   1.408       .  A
C4187      F4192   1.358       .  S
C4188      C4189   1.414       .  A
C4188      F4204   1.357       .  S
C4189      C4190   1.413       .  A
C4190      F4193   1.358       .  S
C4191      C4194   1.405       .  A
C4191      C4198   1.407       .  A
C4194      C4195   1.403       .  A
C4194      F4199   1.357       .  S
C4195      C4196   1.408       .  A
C4195      F4201   1.357       .  S
C4196      C4197   1.404       .  A
C4197      C4198   1.400       .  A
C4197      F4200   1.358       .  S
C4198      F4202   1.358       .  S
C4205      C4206   1.402       .  A
C4205      C4210   1.399       .  A
C4205      F4223   1.358       .  S
C4206      C4207   1.404       .  A
C4206      C4211   1.471       .  S
C4207      C4208   1.395       .  A
C4207      F4212   1.358       .  S
C4208      C4209   1.403       .  A
C4208      F4224   1.358       .  S
C4209      C4210   1.408       .  A
C4210      F4213   1.358       .  S
C4211      C4214   1.399       .  A
C4211      C4218   1.402       .  A
C4214      C4215   1.398       .  A
C4214      F4219   1.358       .  S
C4215      C4216   1.414       .  A
C4215      F4221   1.356       .  S
C4216      C4217   1.409       .  A
C4217      C4218   1.396       .  A
C4217      F4220   1.358       .  S
C4218      F4222   1.358       .  S
C4225      C4226   1.407       .  A
C4225      C4230   1.403       .  A
C4225      F4243   1.358       .  S
C4226      C4227   1.405   1_655  A
C4226      C4231   1.483       .  S
C4227      F4232   1.358       .  S
C4228      F4244   1.358       .  S
C4229      C4230   1.408   1_455  A
C4230      F4233   1.357       .  S
C4231      C4234   1.406       .  A
C4231      C4238   1.407       .  A
C4234      C4235   1.398       .  A
C4234      F4239   1.358       .  S
C4235      C4236   1.407       .  A
C4235      F4241   1.358       .  S
C4236      C4237   1.406       .  A
C4237      C4238   1.400       .  A
C4237      F4240   1.358       .  S
C4238      F4242   1.358       .  S
C4245      C4246   1.404   1_455  A
C4245      F4263   1.358       .  S
C4246      C4247   1.410       .  A
C4246      C4251   1.487       .  S
C4247      C4248   1.407       .  A
C4247      F4252   1.358       .  S
C4248      C4249   1.407   1_655  A
C4248      F4264   1.358       .  S
C4250      F4253   1.358       .  S
C4251      C4254   1.407       .  A
C4251      C4258   1.408       .  A
C4254      C4255   1.397       .  A
C4254      F4259   1.358       .  S
C4255      C4256   1.407       .  A
C4255      F4261   1.358       .  S
C4256      C4257   1.407       .  A
C4257      C4258   1.402       .  A
C4257      F4260   1.358       .  S
C4258      F4262   1.357       .  S
C4265      C4266   1.406       .  A
C4265      C4270   1.401       .  A
C4265      F4283   1.358       .  S
C4266      C4267   1.406       .  A
C4266      C4271   1.488       .  S
C4267      C4268   1.400       .  A
C4267      F4272   1.358       .  S
C4268      C4269   1.408       .  A
C4268      F4284   1.357       .  S
C4269      C4270   1.413       .  A
C4270      F4273   1.358       .  S
C4271      C4274   1.408       .  A
C4271      C4278   1.409       .  A
C4274      C4275   1.400       .  A
C4274      F4279   1.358       .  S
C4275      C4276   1.403       .  A
C4275      F4281   1.358       .  S
C4276      C4277   1.404       .  A
C4277      C4278   1.400       .  A
C4277      F4280   1.358       .  S
C4278      F4282   1.358       .  S
C4285      C4286   1.403       .  A
C4285      C4290   1.397       .  A
C4285      F4303   1.358       .  S
C4286      C4287   1.404       .  A
C4286      C4291   1.475       .  S
C4287      C4288   1.397       .  A
C4287      F4292   1.358       .  S
C4288      C4289   1.407       .  A
C4288      F4304   1.358       .  S
C4289      C4290   1.410       .  A
C4290      F4293   1.358       .  S
C4291      C4294   1.405       .  A
C4291      C4298   1.406       .  A
C4294      C4295   1.397       .  A
C4294      F4299   1.357       .  S
C4295      C4296   1.403       .  A
C4295      F4301   1.358       .  S
C4296      C4297   1.402       .  A
C4297      C4298   1.396       .  A
C4297      F4300   1.358       .  S
C4298      F4302   1.358       .  S
