geometry optimzed in LAMMPS
_audit_creation_date              2020-11-30 
_audit_creation_method            'lammps2cif' 
_symmetry_space_group_name_H-M    'P1' 
_symmetry_Int_Tables_number       1 
_symmetry_cell_setting            triclinic 
loop_ 
_symmetry_equiv_pos_as_xyz 
  x,y,z 
_cell_length_a                    52.1685777 
_cell_length_b                    52.15404614416925 
_cell_length_c                    52.167318498562274 
_cell_angle_alpha                 89.99205608010817 
_cell_angle_beta                  89.9990509411359 
_cell_angle_gamma                 89.9979259877765 
loop_ 
_atom_site_label 
_atom_site_type_symbol 
_atom_site_fract_x 
_atom_site_fract_y 
_atom_site_fract_z 
_atom_site_charge 
C1          C  0.13595896  0.73919078  0.97799221     0.81500
N2          N  0.14867864  0.74019495  0.00062796    -0.76800
C3          C  0.13557838  0.73883612  0.02302376     0.84000
N4          N  0.10967933  0.73640391  0.02277761    -0.76700
C5          C  0.09682749  0.73536438  0.00010723     0.84100
N6          N  0.11006972  0.73675136  0.97770461    -0.78400
C7          C  0.35727583  0.54382383  0.02505971     0.81500
N8          N  0.35721706  0.55712041  0.00273321    -0.76800
C9          C  0.35777163  0.54455109  0.98000817     0.84000
N10         N  0.35823136  0.51851537  0.97961165    -0.76700
C11         C  0.35828129  0.50503853  0.00197140     0.84100
N12         N  0.35775795  0.51780269  0.02471215    -0.78400
C13         C  0.02593372  0.24746484  0.02046663     0.81500
N14         N  0.05193219  0.24737886  0.02106228    -0.76800
C15         C  0.06549807  0.24754190  0.99879881     0.84000
N16         N  0.05296101  0.24779176  0.97603873    -0.76700
C17         C  0.02703138  0.24791737  0.97549526     0.84100
N18         N  0.01348862  0.24770687  0.99766534    -0.78400
C19         C  0.81754087  0.43509334  0.97492204     0.81500
N20         N  0.81885563  0.42225725  0.99748428    -0.76800
C21         C  0.81926134  0.43532705  0.01994358     0.84000
N22         N  0.81836661  0.46132104  0.01985673    -0.76700
C23         C  0.81709702  0.47429040  0.99727873     0.84100
N24         N  0.81671991  0.46109359  0.97479950    -0.78400
C25         C  0.82994283  0.01323564  0.05378965     0.81500
N26         N  0.82932927  0.01308644  0.02778965    -0.76800
C27         C  0.82837228  0.99044133  0.01490804     0.84000
N28         N  0.82801095  0.96804206  0.02817769    -0.76700
C29         C  0.82859714  0.96826437  0.05413977     0.84100
N30         N  0.82955017  0.99083443  0.06693945    -0.78400
C31         C  0.63500541  0.01296756  0.26444264     0.81500
N32         N  0.64790973  0.99046101  0.26304172    -0.76800
C33         C  0.63498105  0.96795247  0.26348474     0.84000
N34         N  0.60906664  0.96793523  0.26531961    -0.76700
C35         C  0.59599129  0.99044989  0.26670375     0.84100
N36         N  0.60903833  0.01302485  0.26624378    -0.78400
C37         C  0.33620824  0.96487184  0.94441835     0.81500
N38         N  0.33765537  0.96487362  0.97038382    -0.76800
C39         C  0.33715499  0.98739730  0.98349473     0.84000
N40         N  0.33516447  0.00988425  0.97045997    -0.76700
C41         C  0.33363627  0.00983010  0.94450653     0.84100
N42         N  0.33420720  0.98733915  0.93151158    -0.78400
C43         C  0.52698450  0.96469556  0.73974055     0.81500
N44         N  0.51342725  0.98680464  0.74108848    -0.76800
C45         C  0.52575380  0.00964833  0.74205069     0.84000
N46         N  0.55176912  0.01043348  0.74158080    -0.76700
C47         C  0.56548292  0.98828373  0.74027600     0.84100
N48         N  0.55297809  0.96540545  0.73937251    -0.78400
C49         C  0.02969921  0.72913833  0.02210335     0.81500
N50         N  0.05558109  0.73159648  0.02230138    -0.76800
C51         C  0.06878625  0.73259316  0.99984664     0.84000
N52         N  0.05588882  0.73120208  0.97720509    -0.76700
C53         C  0.02998146  0.72871325  0.97709556     0.84100
N54         N  0.01695805  0.72775502  0.99953128    -0.78400
C55         C  0.81580355  0.54159996  0.01950461     0.81500
N56         N  0.81618500  0.51560225  0.01964172    -0.76800
C57         C  0.81648194  0.50242384  0.99716655     0.84000
N58         N  0.81646748  0.51542334  0.97458658    -0.76700
C59         C  0.81613388  0.54141890  0.97450957     0.84100
N60         N  0.81584903  0.55449137  0.99695232    -0.78400
C61         C  0.13309431  0.24598600  0.97763666     0.81500
N62         N  0.14549982  0.24668407  0.00040821    -0.76800
C63         C  0.13201420  0.24771599  0.02254911     0.84000
N64         N  0.10608222  0.24796141  0.02203544    -0.76700
C65         C  0.09353714  0.24729644  0.99926445     0.84100
N66         N  0.10709578  0.24630985  0.97699524    -0.78400
C67         C  0.35852134  0.43805975  0.97837519     0.81500
N68         N  0.35851699  0.46407877  0.97877416    -0.76800
C69         C  0.35858313  0.47681305  0.00154395     0.84000
N70         N  0.35849308  0.46329797  0.02387863    -0.76700
C71         C  0.35849973  0.43726738  0.02335520     0.84100
N72         N  0.35842797  0.42474509  0.00063804    -0.78400
C73         C  0.82613984  0.01217576  0.94751193     0.81500
N74         N  0.82697217  0.01250233  0.97348826    -0.76800
C75         C  0.82754090  0.99011534  0.98681204     0.84000
N76         N  0.82735607  0.96741190  0.97399055    -0.76700
C77         C  0.82657745  0.96714541  0.94800435     0.84100
N78         N  0.82599468  0.98951481  0.93480627    -0.78400
C79         C  0.63242522  0.01203256  0.73678404     0.81500
N80         N  0.60639870  0.01169901  0.73795625    -0.76800
C81         C  0.59366914  0.98894533  0.73942339     0.84000
N82         N  0.60714063  0.96662790  0.73976234    -0.76700
C83         C  0.63310728  0.96700324  0.73870422     0.84100
N84         N  0.64569813  0.98968397  0.73720764    -0.78400
C85         C  0.34091582  0.01019385  0.05052065     0.81500
N86         N  0.33931771  0.01009668  0.02457066    -0.76800
C87         C  0.33895932  0.98748684  0.01158838     0.84000
N88         N  0.34007423  0.96499744  0.02475539    -0.76700
C89         C  0.34160934  0.96517981  0.05072121     0.84100
N90         N  0.34199182  0.98775663  0.06354159    -0.78400
C91         C  0.52939315  0.96672458  0.26965934     0.81500
N92         N  0.55533505  0.96732558  0.26896346    -0.76800
C93         C  0.56788721  0.99014284  0.26819282     0.84000
N94         N  0.55426069  0.01239747  0.26795027    -0.76700
C95         C  0.52823990  0.01167045  0.26859688     0.84100
N96         N  0.51588331  0.98886235  0.26936615    -0.78400
C97         C  0.06204225  0.04332186  0.74264183     0.81500
N98         N  0.06156817  0.01740131  0.74418274    -0.76800
C99         C  0.08375744  0.00403324  0.74681751     0.84000
N100        N  0.10645328  0.01678982  0.74804877    -0.76700
C101        C  0.10683969  0.04276979  0.74663490     0.84100
N102        N  0.08465242  0.05600326  0.74393341    -0.78400
C103        C  0.06168436  0.25921477  0.55288885     0.81500
N104        N  0.08424756  0.25902167  0.56573178    -0.76800
C105        C  0.10670500  0.25955648  0.55270095     0.84000
N106        N  0.10659244  0.26015435  0.52665913    -0.76700
C107        C  0.08392923  0.26027950  0.51368412     0.84100
N108        N  0.06150123  0.25975817  0.52691461    -0.78400
C109        C  0.10435906  0.93621470  0.74950832     0.81500
N110        N  0.08147970  0.92395579  0.74937938    -0.76800
C111        C  0.05940039  0.93757697  0.74860772     0.84000
N112        N  0.06014975  0.96353920  0.74791392    -0.76700
C113        C  0.08306439  0.97595021  0.74804060     0.84100
N114        N  0.10520731  0.96221297  0.74885842    -0.78400
C115        C  0.05761711  0.71400066  0.55107685     0.81500
N116        N  0.08032635  0.71433353  0.56366142    -0.76800
C117        C  0.10265432  0.71408889  0.55041129     0.84000
N118        N  0.10228261  0.71365588  0.52437721    -0.76700
C119        C  0.07950903  0.71335129  0.51159969     0.84100
N120        N  0.05717331  0.71361554  0.52506346    -0.78400
C121        C  0.10206417  0.93517131  0.25383608     0.81500
N122        N  0.10206393  0.96114031  0.25319405    -0.76800
C123        C  0.07957005  0.97427274  0.25334336     0.84000
N124        N  0.05700400  0.96121936  0.25409546    -0.76700
C125        C  0.05705100  0.93518679  0.25476102     0.84100
N126        N  0.07957052  0.92221032  0.25459517    -0.78400
C127        C  0.10112908  0.71457667  0.44401504     0.81500
N128        N  0.07850903  0.71614619  0.43134075    -0.76800
C129        C  0.05612643  0.71642341  0.44452919     0.84000
N130        N  0.05636535  0.71525836  0.47054661    -0.76700
C131        C  0.07905136  0.71373494  0.48337718     0.84100
N132        N  0.10141738  0.71347105  0.46999321    -0.78400
C133        C  0.05810683  0.04194661  0.25215018     0.81500
N134        N  0.05755604  0.01592536  0.25273443    -0.76800
C135        C  0.07986482  0.00241630  0.25258851     0.84000
N136        N  0.10262947  0.01509170  0.25183033    -0.76700
C137        C  0.10308160  0.04106625  0.25121506     0.84100
N138        N  0.08084751  0.05444742  0.25139445    -0.78400
C139        C  0.10558980  0.25984032  0.44617487     0.81500
N140        N  0.08300840  0.25806224  0.43348779    -0.76800
C141        C  0.06065527  0.25736856  0.44665919     0.84000
N142        N  0.06089588  0.25834922  0.47266940    -0.76700
C143        C  0.08356592  0.26005684  0.48550618     0.84100
N144        N  0.10592127  0.26074434  0.47215067    -0.78400
C145        C  0.33979231  0.50908238  0.44554456     0.81500
N146        N  0.33698675  0.50941781  0.47141069    -0.76800
C147        C  0.33423860  0.48704613  0.48454977     0.84000
N148        N  0.33418061  0.46440143  0.47167178    -0.76700
C149        C  0.33695044  0.46411655  0.44584396     0.84100
N150        N  0.33971470  0.48643154  0.43281443    -0.78400
C151        C  0.13578478  0.46762611  0.23292739     0.81500
N152        N  0.14885707  0.49009749  0.23240702    -0.76800
C153        C  0.13601226  0.51268284  0.23253901     0.84000
N154        N  0.11002951  0.51277479  0.23328731    -0.76700
C155        C  0.09680769  0.49029751  0.23380861     0.84100
N156        N  0.10977302  0.46768592  0.23366460    -0.78400
O157        O  0.29323624  0.74240749  0.17729034    -0.85200
O158        O  0.28725957  0.73611073  0.32290591    -0.85400
O159        O  0.25913410  0.69962188  0.24496868    -0.87000
O160        O  0.25926275  0.78278483  0.25041147    -0.85800
O161        O  0.29027942  0.81401730  0.25288990    -0.85400
O162        O  0.29034259  0.66849118  0.24462221    -0.86700
O163        O  0.25747673  0.73815385  0.29047703    -0.85200
O164        O  0.26093879  0.74140255  0.20727103    -0.84800
Zr165      Zr  0.28031925  0.74097808  0.24970295     2.84300
O166        O  0.30484890  0.76566440  0.27795614    -1.06800
O167        O  0.30734325  0.71636888  0.22375409    -1.07500
C168        C  0.26942581  0.74163533  0.18405665     1.07900
C169        C  0.26409900  0.73635873  0.31426318     1.07900
C170        C  0.26682862  0.67616376  0.24341133     1.10800
C171        C  0.26681488  0.80633477  0.25151727     1.08600
H172        H  0.29388195  0.70214008  0.28496654     0.34200
O173        O  0.30491806  0.71351078  0.27541780    -1.27700
H174        H  0.29683862  0.77922509  0.21518810     0.33900
O175        O  0.30706538  0.76814422  0.22590913    -1.29400
O176        O  0.37037119  0.73778121  0.32632607    -0.85200
O177        O  0.37662876  0.74695884  0.18083119    -0.86700
O178        O  0.33168055  0.66579319  0.28976227    -0.85300
O179        O  0.32818018  0.81171138  0.29700095    -0.85300
O180        O  0.33473668  0.81565190  0.21355958    -0.85000
O181        O  0.33412455  0.66982094  0.20685545    -0.84800
O182        O  0.40487418  0.69946014  0.25227644    -0.85200
O183        O  0.40481898  0.78222742  0.25779367    -0.84700
O184        O  0.37383028  0.66823343  0.25008304    -0.85700
O185        O  0.37365664  0.81342154  0.25762713    -0.84900
O186        O  0.33071546  0.69538659  0.32242116    -0.85300
O187        O  0.33594040  0.70239872  0.17720848    -0.85000
O188        O  0.33548220  0.78582463  0.18108176    -0.84700
O189        O  0.32675984  0.77909155  0.32664199    -0.85100
O190        O  0.40274452  0.73818090  0.29639626    -0.85400
O191        O  0.40640611  0.74614874  0.21330014    -0.86700
Zr192      Zr  0.32965877  0.73834336  0.30353632     2.83100
Zr193      Zr  0.33417023  0.74325711  0.20008374     2.83500
Zr194      Zr  0.33213120  0.68918691  0.24925751     2.84100
Zr195      Zr  0.33180849  0.79271008  0.25432695     2.83400
Zr196      Zr  0.38357288  0.74098394  0.25392367     2.84200
O197        O  0.35867522  0.76799063  0.22834605    -1.07300
O198        O  0.35675841  0.71384102  0.27748460    -1.06800
C199        C  0.39415595  0.73756331  0.31957388     1.07900
C200        C  0.39977794  0.74791796  0.18950809     1.10500
C201        C  0.33149787  0.67222506  0.31365713     1.08100
C202        C  0.32641108  0.80299468  0.32010870     1.08400
C203        C  0.33579236  0.80898132  0.18973208     1.08000
C204        C  0.33552168  0.67851825  0.18375347     1.07600
C205        C  0.39729506  0.67594564  0.25109688     1.08000
C206        C  0.39715468  0.80570095  0.25856414     1.07500
H207        H  0.37058141  0.70614667  0.21474973     0.34200
O208        O  0.35929938  0.71609694  0.22551521    -1.28400
H209        H  0.36669959  0.77580022  0.29189412     0.34200
O210        O  0.35663143  0.76563693  0.28016613    -1.29700
C211        C  0.52619053  0.23630206  0.47588648     0.81500
N212        N  0.51301472  0.23802013  0.49820176    -0.76800
C213        C  0.52575155  0.23947733  0.52080022     0.84000
N214        N  0.55176518  0.23912769  0.52114353    -0.76700
C215        C  0.56509037  0.23742471  0.49880582     0.84100
N216        N  0.55219734  0.23605107  0.47616856    -0.78400
C217        C  0.31564350  0.04508652  0.47866192     0.81500
N218        N  0.31423536  0.01912404  0.47889860    -0.76800
C219        C  0.31325445  0.00622560  0.50153532     0.84000
N220        N  0.31368836  0.01951814  0.52396501    -0.76700
C221        C  0.31500976  0.04551801  0.52367215     0.84100
N222        N  0.31604994  0.05825040  0.50104333    -0.78400
O223        O  0.33302602  0.16752117  0.79156536    -0.85200
O224        O  0.33602768  0.31357922  0.79485322    -0.85400
O225        O  0.37649315  0.23839217  0.82340950    -0.87000
O226        O  0.29380152  0.24070175  0.82618503    -0.85800
O227        O  0.26150232  0.24134543  0.79620213    -0.85400
O228        O  0.40671768  0.23887100  0.79131234    -0.86700
O229        O  0.33598034  0.28165649  0.82525411    -0.85200
O230        O  0.33445518  0.19788716  0.82349223    -0.84800
Zr231      Zr  0.33449640  0.24021566  0.80347991     2.84300
O232        O  0.30816414  0.26711959  0.77922673    -1.06800
O233        O  0.35903104  0.21446398  0.77620379    -1.07500
C234        C  0.33382338  0.17455441  0.81524444     1.07900
C235        C  0.33656763  0.30536887  0.81815614     1.07900
C236        C  0.39973180  0.23821357  0.81504829     1.10800
C237        C  0.27003524  0.24096637  0.81942237     1.08600
H238        H  0.37148386  0.27656164  0.78800333     0.34200
O239        O  0.36021804  0.26631346  0.77751066    -1.27700
H240        H  0.29681080  0.20438907  0.78891646     0.33900
O241        O  0.30727502  0.21515959  0.77811569    -1.32600
O242        O  0.33207760  0.31511044  0.71196938    -0.85200
O243        O  0.32937719  0.16972389  0.70836318    -0.86700
O244        O  0.40636218  0.28185194  0.74949733    -0.85300
O245        O  0.26059787  0.28383112  0.75691809    -0.85300
O246        O  0.25944655  0.20064515  0.75304814    -0.85000
O247        O  0.40487028  0.19817755  0.74958106    -0.84800
O248        O  0.37156683  0.24323547  0.67772150    -0.85200
O249        O  0.28865514  0.24460393  0.68058550    -0.84700
O250        O  0.40397555  0.24179467  0.70757599    -0.85700
O251        O  0.25850329  0.24422091  0.71272422    -0.84900
O252        O  0.37570939  0.31352583  0.75078131    -0.85300
O253        O  0.37299368  0.16772472  0.74997389    -0.85000
O254        O  0.29011603  0.16901068  0.75157185    -0.84700
O255        O  0.29226736  0.31451130  0.75643297    -0.85100
O256        O  0.33091443  0.28453334  0.68024962    -0.85400
O257        O  0.32852336  0.20175577  0.67810549    -0.86700
Zr258      Zr  0.33372037  0.29308052  0.75306484     2.83100
Zr259      Zr  0.33187859  0.18968390  0.75057172     2.83500
Zr260      Zr  0.38459303  0.24040886  0.75010222     2.84100
Zr261      Zr  0.28102670  0.24207601  0.75372260     2.83400
Zr262      Zr  0.33087769  0.24257022  0.70041883     2.84200
O263        O  0.30528614  0.21630490  0.72618184    -1.07300
O264        O  0.35825621  0.26736826  0.72576976    -1.06800
C265        C  0.33118320  0.30786759  0.68835193     1.07900
C266        C  0.32820306  0.17805756  0.68509980     1.10500
C267        C  0.39909357  0.30552239  0.74973370     1.08100
C268        C  0.26865774  0.30718699  0.75763131     1.08400
C269        C  0.26674935  0.17702050  0.75231771     1.08000
C270        C  0.39666990  0.17481200  0.74973513     1.07600
C271        C  0.39535567  0.24295803  0.68441301     1.08000
C272        C  0.26539309  0.24504424  0.68896087     1.07500
H273        H  0.36763759  0.20482816  0.71298951     0.34200
O274        O  0.35755482  0.21544468  0.72430661    -1.28400
H275        H  0.29541348  0.27955341  0.71768375     0.34200
O276        O  0.30630272  0.26838053  0.72761802    -1.29700
C277        C  0.52974994  0.73740149  0.47871855     0.81500
N278        N  0.51744964  0.73697200  0.50154925    -0.76800
C279        C  0.53088381  0.73905982  0.52364032     0.84000
N280        N  0.55672860  0.74165291  0.52296044    -0.76700
C281        C  0.56917545  0.74211028  0.50006407     0.84100
N282        N  0.55560278  0.74000951  0.47790716    -0.78400
C283        C  0.31315496  0.93872285  0.52382555     0.81500
N284        N  0.31338969  0.96477425  0.52406832    -0.76800
C285        C  0.31230699  0.97803477  0.50160080     0.84000
N286        N  0.31102065  0.96506005  0.47900231    -0.76700
C287        C  0.31068666  0.93905046  0.47885336     0.84100
N288        N  0.31185545  0.92597297  0.50124332    -0.78400
C289        C  0.32692773  0.46503042  0.55148345     0.81500
N290        N  0.32916915  0.46482180  0.52559490    -0.76800
C291        C  0.33137827  0.48726072  0.51251178     0.84000
N292        N  0.33138778  0.50984083  0.52549578    -0.76700
C293        C  0.32916466  0.50992137  0.55138288     0.84100
N294        N  0.32701061  0.48755211  0.56435276    -0.78400
C295        C  0.13313396  0.46540010  0.77276266     0.81500
N296        N  0.10737629  0.46585045  0.76922979    -0.76800
C297        C  0.09478928  0.48864930  0.76777908     0.84000
N298        N  0.10816714  0.51094444  0.76973174    -0.76700
C299        C  0.13391975  0.51039061  0.77330170     0.84100
N300        N  0.14635515  0.48765005  0.77468317    -0.78400
O301        O  0.29168987  0.73972098  0.82220754    -0.85200
O302        O  0.28531895  0.73184082  0.67697544    -0.85400
O303        O  0.25668680  0.77688153  0.75020388    -0.87000
O304        O  0.25893024  0.69326519  0.75269953    -0.85800
O305        O  0.29103777  0.66304491  0.75334050    -0.85400
O306        O  0.28706289  0.80876474  0.74796499    -0.86700
O307        O  0.25558173  0.73253428  0.70948334    -0.85200
O308        O  0.25920168  0.73784539  0.79246310    -0.84800
Zr309      Zr  0.27863247  0.73555010  0.75014860     2.84300
O310        O  0.30409095  0.70915340  0.72444454    -1.06800
O311        O  0.30501651  0.76316513  0.77361221    -1.07500
C312        C  0.26785272  0.73927231  0.81557211     1.07900
C313        C  0.26215646  0.73134718  0.68564647     1.07900
C314        C  0.26379947  0.80058315  0.74952715     1.10800
C315        C  0.26732142  0.67001904  0.75378044     1.08600
H316        H  0.29078465  0.77107625  0.71141683     0.34200
O317        O  0.30231325  0.76118921  0.72197134    -1.27700
H318        H  0.29633348  0.70082950  0.78807739     0.33900
O319        O  0.30610149  0.71130913  0.77636204    -1.29400
O320        O  0.36845681  0.73549758  0.67321082    -0.85200
O321        O  0.37499024  0.74180725  0.81870303    -0.86700
O322        O  0.32593227  0.80781311  0.70299784    -0.85300
O323        O  0.33024833  0.66244863  0.70978763    -0.85300
O324        O  0.33687164  0.66606674  0.79285208    -0.85000
O325        O  0.33026944  0.81150879  0.78631051    -0.84800
O326        O  0.40201301  0.78031475  0.74135507    -0.85200
O327        O  0.40415899  0.69726180  0.74617003    -0.84700
O328        O  0.37006179  0.81067090  0.74163030    -0.85700
O329        O  0.37401123  0.66523239  0.74906885    -0.84900
O330        O  0.32519402  0.77532905  0.67321783    -0.85300
O331        O  0.33211894  0.78162203  0.81868005    -0.85000
O332        O  0.33698690  0.69859685  0.82255902    -0.84700
O333        O  0.32777193  0.69219289  0.67731122    -0.85100
O334        O  0.40107189  0.73736724  0.70280838    -0.85400
O335        O  0.40471297  0.74104257  0.78614203    -0.86700
Zr336      Zr  0.32780611  0.73474253  0.69626296     2.83100
Zr337      Zr  0.33259796  0.73914917  0.79950220     2.83500
Zr338      Zr  0.32899108  0.78861559  0.74553355     2.84100
Zr339      Zr  0.33191680  0.68531267  0.75039606     2.83400
Zr340      Zr  0.38195071  0.73835464  0.74536370     2.84200
O341        O  0.35825239  0.71298202  0.77373216    -1.07300
O342        O  0.35434055  0.76242914  0.71947689    -1.06800
C343        C  0.39230583  0.73641749  0.67971006     1.07900
C344        C  0.39810860  0.74212392  0.80996856     1.10500
C345        C  0.32484080  0.79916544  0.67984292     1.08100
C346        C  0.32882822  0.66908755  0.68601546     1.08400
C347        C  0.33839878  0.67476921  0.81597818     1.08000
C348        C  0.33132084  0.80479021  0.81011040     1.07600
C349        C  0.39374512  0.80360292  0.74044128     1.08000
C350        C  0.39724249  0.67355423  0.74759763     1.07500
H351        H  0.36757760  0.77619967  0.78103952     0.34200
O352        O  0.35671147  0.76471643  0.77143962    -1.28400
H353        H  0.36616931  0.69974671  0.71115374     0.34200
O354        O  0.35570413  0.71058636  0.72188524    -1.29700
C355        C  0.83389964  0.51455049  0.44842097     0.81500
N356        N  0.83358169  0.51387175  0.47437911    -0.76800
C357        C  0.83304263  0.49101069  0.48688644     0.84000
N358        N  0.83281018  0.46881203  0.47326349    -0.76700
C359        C  0.83309463  0.46954183  0.44727317     0.84100
N360        N  0.83362868  0.49238475  0.43487844    -0.78400
C361        C  0.03020749  0.51416771  0.23547615     0.81500
N362        N  0.05614255  0.51350166  0.23471914    -0.76800
C363        C  0.06866222  0.49065996  0.23471172     0.84000
N364        N  0.05500595  0.46841490  0.23549702    -0.76700
C365        C  0.02897322  0.46915999  0.23627003     0.84100
N366        N  0.01665663  0.49203049  0.23625401    -0.78400
C367        C  0.60098958  0.54139552  0.24886876     0.81500
N368        N  0.60146691  0.51546459  0.24726116    -0.76800
C369        C  0.57917131  0.50199813  0.24676552     0.84000
N370        N  0.55641597  0.51460047  0.24785477    -0.76700
C371        C  0.55599892  0.54052126  0.24953451     0.84100
N372        N  0.57825872  0.55391266  0.24998381    -0.78400
C373        C  0.60141333  0.75089699  0.05067332     0.81500
N374        N  0.57876125  0.75089311  0.06333503    -0.76800
C375        C  0.55642496  0.75252476  0.05021307     0.84000
N376        N  0.55674788  0.75414496  0.02420024    -0.76700
C377        C  0.57952736  0.75419526  0.01138308     0.84100
N378        N  0.60183622  0.75259871  0.02474619    -0.78400
O379        O  0.83028683  0.81079285  0.20529714    -0.85200
O380        O  0.82510469  0.66537614  0.20507840    -0.85400
O381        O  0.86948660  0.73623122  0.17326972    -0.87000
O382        O  0.78625592  0.73894113  0.17500013    -0.85800
O383        O  0.75586372  0.73954059  0.20691899    -0.85400
O384        O  0.90144236  0.73575912  0.20361928    -0.86700
O385        O  0.82520694  0.69674640  0.17410013    -0.85200
O386        O  0.82905572  0.77966496  0.17409770    -0.84800
Zr387      Zr  0.82827649  0.73818454  0.19529730     2.84300
O388        O  0.80250077  0.71275655  0.22166861    -1.06800
O389        O  0.85546651  0.76360770  0.22036065    -1.07500
C390        C  0.82974767  0.80314377  0.18176456     1.07900
C391        C  0.82423059  0.67321786  0.18164610     1.07900
C392        C  0.89318376  0.73539809  0.18032601     1.10800
C393        C  0.76294242  0.73938928  0.18322122     1.08600
H394        H  0.86421241  0.70048105  0.20918702     0.34200
O395        O  0.85419132  0.71142610  0.22022936    -1.27700
H396        H  0.79264783  0.77568169  0.21130478     0.33900
O397        O  0.80337244  0.76471055  0.22164397    -1.29400
O398        O  0.82952139  0.66479864  0.28842147    -0.85200
O399        O  0.83201144  0.81061964  0.28897418    -0.86700
O400        O  0.90134939  0.69476600  0.24480532    -0.85300
O401        O  0.75578173  0.69782403  0.24774879    -0.85300
O402        O  0.75743566  0.78114111  0.24992624    -0.85000
O403        O  0.90319161  0.77799041  0.24566727    -0.84800
O404        O  0.87307726  0.73645269  0.31856029    -0.85200
O405        O  0.79008493  0.73907075  0.32068188    -0.84700
O406        O  0.90343666  0.73561147  0.28663925    -0.85700
O407        O  0.75801832  0.73965756  0.29043667    -0.84900
O408        O  0.86964550  0.66412361  0.24482178    -0.85300
O409        O  0.87271683  0.80985515  0.24658401    -0.85000
O410        O  0.78925323  0.81165602  0.24942682    -0.84700
O411        O  0.78624914  0.66595391  0.24719897    -0.85100
O412        O  0.83079978  0.69600259  0.31952101    -0.85400
O413        O  0.83215254  0.77913588  0.31983862    -0.86700
Zr414      Zr  0.82837390  0.68609994  0.24678024     2.83100
Zr415      Zr  0.83055524  0.78975981  0.24709269     2.83500
Zr416      Zr  0.88116788  0.73679953  0.24559618     2.84100
Zr417      Zr  0.77779445  0.73907022  0.24817012     2.83400
Zr418      Zr  0.83092485  0.73764506  0.29844832     2.84200
O419        O  0.80484663  0.76426424  0.27351144    -1.07300
O420        O  0.85566274  0.71113465  0.27210713    -1.06800
C421        C  0.83036754  0.67247599  0.31193412     1.07900
C422        C  0.83247666  0.80273568  0.31243433     1.10500
C423        C  0.89330069  0.67140080  0.24437853     1.08100
C424        C  0.76291098  0.67412685  0.24738329     1.08400
C425        C  0.76557307  0.80450777  0.25032669     1.08000
C426        C  0.89605672  0.80167429  0.24624241     1.07600
C427        C  0.89639133  0.73567055  0.31034515     1.08000
C428        C  0.76640546  0.73969971  0.31369413     1.07500
H429        H  0.86779974  0.77356162  0.28272615     0.34200
O430        O  0.85663820  0.76323380  0.27220472    -1.28400
H431        H  0.79292946  0.70183911  0.28435447     0.34200
O432        O  0.80356586  0.71232264  0.27343517    -1.29700
C433        C  0.63651247  0.74889374  0.52093256     0.81500
N434        N  0.61063692  0.74659404  0.52154150    -0.76800
C435        C  0.59713658  0.74482723  0.49933119     0.84000
N436        N  0.60968667  0.74530717  0.47650810    -0.76700
C437        C  0.63557057  0.74762006  0.47597330     0.84100
N438        N  0.64896338  0.74933746  0.49815693    -0.78400
C439        C  0.84770826  0.93409043  0.52009927     0.81500
N440        N  0.84806643  0.96008875  0.51998899    -0.76800
C441        C  0.84855656  0.97309485  0.49741375     0.84000
N442        N  0.84861181  0.95990389  0.47492873    -0.76700
C443        C  0.84821963  0.93388507  0.47506608     0.84100
N444        N  0.84774375  0.92100952  0.49764535    -0.78400
C445        C  0.60493178  0.54362465  0.75149281     0.81500
N446        N  0.58215818  0.55599669  0.75275238    -0.76800
C447        C  0.56006026  0.54248497  0.75429952     0.84000
N448        N  0.56070996  0.51646773  0.75451542    -0.76700
C449        C  0.58357557  0.50395656  0.75328868     0.84100
N450        N  0.60569484  0.51764009  0.75175792    -0.78400
C451        C  0.55858078  0.75591953  0.94363570     0.81500
N452        N  0.58126308  0.75852692  0.93121412    -0.76800
C453        C  0.60343964  0.75993929  0.94468104     0.84000
N454        N  0.60290979  0.75849627  0.97067932    -0.76700
C455        C  0.58015436  0.75592845  0.98323246     0.84100
N456        N  0.55800488  0.75465399  0.96959445    -0.78400
C457        C  0.83232818  0.51284355  0.55407831     0.81500
N458        N  0.83233793  0.49033608  0.56699785    -0.76800
C459        C  0.83249010  0.46787199  0.55397685     0.84000
N460        N  0.83266605  0.46788987  0.52794412    -0.76700
C461        C  0.83265293  0.49051922  0.51496947     0.84100
N462        N  0.83252202  0.51295648  0.52814217    -0.78400
C463        C  0.02866984  0.51226552  0.75756971     0.81500
N464        N  0.05439406  0.51190544  0.76141649    -0.76800
C465        C  0.06694947  0.48915897  0.76364368     0.84000
N466        N  0.05360658  0.46683333  0.76201856    -0.76700
C467        C  0.02789680  0.46723521  0.75821303     0.84100
N468        N  0.01545259  0.48993974  0.75601349    -0.78400
O469        O  0.87195384  0.73852413  0.82373315    -0.85200
O470        O  0.87553770  0.73772157  0.67775686    -0.85400
O471        O  0.90366430  0.69649037  0.75181697    -0.87000
O472        O  0.90647151  0.77965172  0.75201742    -0.85800
O473        O  0.87637279  0.81188382  0.75184835    -0.85400
O474        O  0.87140869  0.66644374  0.75121312    -0.86700
O475        O  0.90587527  0.73702655  0.70972857    -0.85200
O476        O  0.90384959  0.73671953  0.79335839    -0.84800
Zr477      Zr  0.88393481  0.73876304  0.75114094     2.84300
O478        O  0.85980795  0.76562617  0.72452722    -1.06800
O479        O  0.85659116  0.71383105  0.77653199    -1.07500
C480        C  0.89561627  0.73698526  0.81668000     1.07900
C481        C  0.89882239  0.73656212  0.68599217     1.07900
C482        C  0.89521086  0.67325758  0.75168678     1.10800
C483        C  0.89959285  0.80341272  0.75232259     1.08600
H484        H  0.86834712  0.70249114  0.71440366     0.34200
O485        O  0.85783813  0.71368512  0.72471245    -1.27700
H486        H  0.86917966  0.77595724  0.78761475     0.33900
O487        O  0.85847612  0.76570861  0.77654235    -1.29400
O488        O  0.79259565  0.74240055  0.67577039    -0.85200
O489        O  0.78897236  0.74473092  0.82170888    -0.86700
O490        O  0.83067279  0.66755432  0.70867717    -0.85300
O491        O  0.83738213  0.81344153  0.70839040    -0.85300
O492        O  0.83187894  0.81338225  0.79154897    -0.85000
O493        O  0.82873892  0.66786679  0.79157041    -0.84800
O494        O  0.75784414  0.70204334  0.74779666    -0.85200
O495        O  0.76090054  0.78489753  0.74640139    -0.84700
O496        O  0.78783475  0.66972105  0.74850724    -0.85700
O497        O  0.79307481  0.81500743  0.74728799    -0.84900
O498        O  0.83246973  0.69858179  0.67739626    -0.85300
O499        O  0.82855580  0.69907450  0.82269448    -0.85000
O500        O  0.83095639  0.78225026  0.82274746    -0.84700
O501        O  0.83706921  0.78222060  0.67726088    -0.85100
O502        O  0.76070179  0.74349487  0.70617995    -0.85400
O503        O  0.75868674  0.74646323  0.78973886    -0.86700
Zr504      Zr  0.83363013  0.74047059  0.69811254     2.83100
Zr505      Zr  0.83087465  0.74069835  0.80156035     2.83500
Zr506      Zr  0.83033440  0.68899859  0.75005604     2.84100
Zr507      Zr  0.83405555  0.79235834  0.74986002     2.83400
Zr508      Zr  0.78059088  0.74268631  0.74845424     2.84200
O509        O  0.80663090  0.76754111  0.77505158    -1.07300
O510        O  0.80602647  0.71559310  0.72327493    -1.06800
C511        C  0.76890706  0.74344940  0.68285051     1.07900
C512        C  0.76577369  0.74699176  0.81346534     1.10500
C513        C  0.83161575  0.67510780  0.68516073     1.08100
C514        C  0.83811260  0.80574021  0.68491370     1.08400
C515        C  0.83098868  0.80575045  0.81506600     1.08000
C516        C  0.82815297  0.67554898  0.81504746     1.07600
C517        C  0.76464309  0.67828049  0.74784016     1.08000
C518        C  0.76930683  0.80813834  0.74614936     1.07500
H519        H  0.79298867  0.70559037  0.78576619     0.34200
O520        O  0.80443343  0.71568465  0.77530742    -1.28400
H521        H  0.79824305  0.77854143  0.71200425     0.34200
O522        O  0.80806444  0.76748499  0.72311324    -1.29700
C523        C  0.55806233  0.43463681  0.24102878     0.81500
N524        N  0.55745159  0.46055589  0.24295534    -0.76800
C525        C  0.57969128  0.47401197  0.24475523     0.84000
N526        N  0.60246754  0.46141157  0.24470648    -0.76700
C527        C  0.60297797  0.43551708  0.24282646     0.84100
N528        N  0.58080939  0.42213684  0.24104400    -0.78400
C529        C  0.60447493  0.22450044  0.05349762     0.81500
N530        N  0.60536898  0.22612908  0.02754452    -0.76800
C531        C  0.58327758  0.22591824  0.01373294     0.84000
N532        N  0.56035274  0.22412422  0.02606045    -0.76700
C533        C  0.55951884  0.22245608  0.05199091     0.84100
N534        N  0.58158829  0.22271582  0.06566907    -0.78400
O535        O  0.87174838  0.24065008  0.17709808    -0.85200
O536        O  0.87454638  0.24489477  0.32291318    -0.85400
O537        O  0.90270284  0.28531506  0.24671061    -0.87000
O538        O  0.90553248  0.20173060  0.25181386    -0.85800
O539        O  0.87538236  0.16957788  0.25261812    -0.85400
O540        O  0.87042826  0.31533722  0.24636281    -0.86700
O541        O  0.90505697  0.24513848  0.29107528    -0.85200
O542        O  0.90350300  0.24210930  0.20764947    -0.84800
Zr543      Zr  0.88320553  0.24284309  0.24977477     2.84300
O544        O  0.85861271  0.21693935  0.27688585    -1.06800
O545        O  0.85609382  0.26721184  0.22360833    -1.07500
C546        C  0.89540495  0.24145409  0.18427866     1.07900
C547        C  0.89791676  0.24561507  0.31476774     1.07900
C548        C  0.89418657  0.30854145  0.24567003     1.10800
C549        C  0.89864392  0.17796362  0.25264448     1.08600
H550        H  0.86758882  0.28010687  0.28562277     0.34200
O551        O  0.85705798  0.26868309  0.27558353    -1.27700
H552        H  0.86861364  0.20456745  0.21441462     0.33900
O553        O  0.85784125  0.21527537  0.22497693    -1.29400
O554        O  0.79058140  0.24276995  0.32409103    -0.85200
O555        O  0.78863846  0.23739836  0.17867821    -0.86700
O556        O  0.82982831  0.31501873  0.29045552    -0.85300
O557        O  0.83599003  0.16961170  0.29437870    -0.85300
O558        O  0.83179365  0.16730038  0.21108985    -0.85000
O559        O  0.82715389  0.31302229  0.20728514    -0.84800
O560        O  0.75737496  0.28004951  0.25160968    -0.85200
O561        O  0.76017235  0.19695377  0.25374743    -0.84700
O562        O  0.78744554  0.31226877  0.25065718    -0.85700
O563        O  0.79237284  0.16687464  0.25445009    -0.84900
O564        O  0.83114403  0.28479279  0.32253409    -0.85300
O565        O  0.82815089  0.28106320  0.17694884    -0.85000
O566        O  0.83026292  0.19757606  0.17906903    -0.84700
O567        O  0.83531764  0.20145779  0.32485838    -0.85100
O568        O  0.75909151  0.24080032  0.29330457    -0.85400
O569        O  0.75811037  0.23693323  0.21046825    -0.86700
Zr570      Zr  0.83237105  0.24258992  0.30266539     2.83100
Zr571      Zr  0.83052751  0.23979005  0.19903421     2.83500
Zr572      Zr  0.82972323  0.29274875  0.24935629     2.84100
Zr573      Zr  0.83316480  0.18948551  0.25222873     2.83400
Zr574      Zr  0.77989072  0.23924078  0.25171841     2.84200
O575        O  0.80597435  0.21355337  0.22593374    -1.07300
O576        O  0.80520878  0.26676935  0.27644360    -1.06800
C577        C  0.76694263  0.24208190  0.31668389     1.07900
C578        C  0.76531806  0.23652668  0.18681428     1.10500
C579        C  0.83032920  0.30805495  0.31419290     1.08100
C580        C  0.83656209  0.17778354  0.31770701     1.08400
C581        C  0.83071349  0.17428229  0.18737492     1.08000
C582        C  0.82692272  0.30478306  0.18395713     1.07600
C583        C  0.76424993  0.30378744  0.25125452     1.08000
C584        C  0.76861678  0.17372969  0.25469626     1.07500
H585        H  0.79276831  0.27546464  0.21391647     0.34200
O586        O  0.80410436  0.26548100  0.22459006    -1.28400
H587        H  0.79675545  0.20427082  0.28942876     0.34200
O588        O  0.80683002  0.21495417  0.27817345    -1.29700
C589        C  0.56283687  0.43615435  0.75357980     0.81500
N590        N  0.56220220  0.46214145  0.75400355    -0.76800
C591        C  0.58437301  0.47580041  0.75322106     0.84000
N592        N  0.60722266  0.46327249  0.75196258    -0.76700
C593        C  0.60782242  0.43725438  0.75153246     0.84100
N594        N  0.58563030  0.42374416  0.75231653    -0.78400
C595        C  0.56165131  0.23029430  0.94653440     0.81500
N596        N  0.56151365  0.22853615  0.97241811    -0.76800
C597        C  0.58391589  0.22787023  0.98564165     0.84000
N598        N  0.60658778  0.22892204  0.97272221    -0.76700
C599        C  0.60666103  0.23063065  0.94670851     0.84100
N600        N  0.58418744  0.23132357  0.93369179    -0.78400
C601        C  0.63244043  0.23517709  0.52151545     0.81500
N602        N  0.60639904  0.23605176  0.52158871    -0.76800
C603        C  0.59328154  0.23683365  0.49902581     0.84000
N604        N  0.60637397  0.23679407  0.47649881    -0.76700
C605        C  0.63234588  0.23598949  0.47646261     0.84100
N606        N  0.64533546  0.23516512  0.49894764    -0.78400
C607        C  0.84966466  0.04038168  0.47488222     0.81500
N608        N  0.84949167  0.01436256  0.47483424    -0.76800
C609        C  0.84880843  0.00126208  0.49737202     0.84000
N610        N  0.84823787  0.01436463  0.51990943    -0.76700
C611        C  0.84839337  0.04037534  0.51989227     0.84100
N612        N  0.84907334  0.05332963  0.49739187    -0.78400
O613        O  0.87362512  0.23887918  0.82079958    -0.85200
O614        O  0.87586849  0.24070606  0.67530932    -0.85400
O615        O  0.90625570  0.19673202  0.74753671    -0.87000
O616        O  0.90586943  0.27979455  0.74879944    -0.85800
O617        O  0.87430759  0.31055852  0.74864878    -0.85400
O618        O  0.87554126  0.16510315  0.74696917    -0.86700
O619        O  0.90642718  0.24105407  0.70705210    -0.85200
O620        O  0.90518555  0.23883634  0.79001797    -0.84800
Zr621      Zr  0.88472470  0.23824263  0.74825032     2.84300
O622        O  0.85904832  0.26398173  0.72211203    -1.06800
O623        O  0.85896970  0.21175950  0.77371329    -1.07500
C624        C  0.89721990  0.23928454  0.81338423     1.07900
C625        C  0.89919773  0.24179706  0.68342707     1.07900
C626        C  0.89890647  0.17310589  0.74698307     1.10800
C627        C  0.89796138  0.30321345  0.74888799     1.08600
H628        H  0.87097889  0.20194284  0.71103320     0.34200
O629        O  0.85983242  0.21216632  0.72167206    -1.27700
H630        H  0.86859678  0.27467234  0.78493754     0.33900
O631        O  0.85832086  0.26380697  0.77404964    -1.29400
O632        O  0.79264185  0.23579089  0.67371301    -0.85200
O633        O  0.79027509  0.23689533  0.81966906    -0.86700
O634        O  0.83576007  0.16528253  0.70494138    -0.85300
O635        O  0.83437473  0.31059969  0.70636516    -0.85300
O636        O  0.83061066  0.31051108  0.78934487    -0.85000
O637        O  0.83454056  0.16475689  0.78905307    -0.84800
O638        O  0.76090256  0.19444586  0.74517955    -0.85200
O639        O  0.75974637  0.27803058  0.74613428    -0.84700
O640        O  0.79251747  0.16373197  0.74492634    -0.85700
O641        O  0.79049395  0.30964888  0.74693866    -0.84900
O642        O  0.83638120  0.19672826  0.67403057    -0.85300
O643        O  0.83350290  0.19577669  0.82038173    -0.85000
O644        O  0.83008790  0.27913638  0.82030072    -0.84700
O645        O  0.83447045  0.27976499  0.67486771    -0.85100
O646        O  0.76096294  0.23489817  0.70433526    -0.85400
O647        O  0.75965326  0.23652712  0.78795382    -0.86700
Zr648      Zr  0.83392479  0.23796543  0.69565861     2.83100
Zr649      Zr  0.83223505  0.23736545  0.79917356     2.83500
Zr650      Zr  0.83382407  0.18573113  0.74708693     2.84100
Zr651      Zr  0.83249288  0.28927507  0.74776118     2.83400
Zr652      Zr  0.78134632  0.23657377  0.74646842     2.84200
O653        O  0.80639331  0.26283403  0.77289532    -1.07300
O654        O  0.80804843  0.21132898  0.72082913    -1.06800
C655        C  0.76898925  0.23468332  0.68091812     1.07900
C656        C  0.76688949  0.23665077  0.81162717     1.10500
C657        C  0.83673358  0.17315177  0.68147951     1.08100
C658        C  0.83492876  0.30318206  0.68279950     1.08400
C659        C  0.82978949  0.30273893  0.81281469     1.08000
C660        C  0.83425969  0.17229243  0.81265201     1.07600
C661        C  0.76885420  0.17101130  0.74440663     1.08000
C662        C  0.76709205  0.30166631  0.74639913     1.07500
H663        H  0.79640177  0.19995611  0.78331985     0.34200
O664        O  0.80705886  0.21091117  0.77289237    -1.28400
H665        H  0.79648115  0.27389367  0.71023141     0.34200
O666        O  0.80710487  0.26336285  0.72111915    -1.29700
O667        O  0.29054906  0.23639445  0.17353126    -0.85200
O668        O  0.28651026  0.24317415  0.31843018    -0.85400
O669        O  0.25618225  0.19903531  0.24600818    -0.87000
O670        O  0.25917654  0.28218053  0.24382410    -0.85800
O671        O  0.29151772  0.31212623  0.24355543    -0.85400
O672        O  0.28601153  0.16662685  0.24768658    -0.86700
O673        O  0.25622841  0.24293747  0.28640337    -0.85200
O674        O  0.25866577  0.23892788  0.20385802    -0.84800
Zr675      Zr  0.27878431  0.23986352  0.24576382     2.84300
O676        O  0.30480086  0.26564106  0.27157342    -1.06800
O677        O  0.30405357  0.21190489  0.22149610    -1.07500
C678        C  0.26688324  0.23765331  0.18061316     1.07900
C679        C  0.26323889  0.24400755  0.31007335     1.07900
C680        C  0.26288619  0.17524512  0.24668472     1.10800
C681        C  0.26771624  0.30537914  0.24324422     1.08600
H682        H  0.29098750  0.20396404  0.28410691     0.34200
O683        O  0.30249813  0.21375590  0.27344337    -1.27700
H684        H  0.29623669  0.27460822  0.20819836     0.33900
O685        O  0.30614746  0.26389909  0.21957658    -1.29400
O686        O  0.37018406  0.23742365  0.32092222    -0.85200
O687        O  0.37381599  0.23306690  0.17545953    -0.86700
O688        O  0.32556979  0.16646299  0.29141387    -0.85300
O689        O  0.33188045  0.31187558  0.28654745    -0.85300
O690        O  0.33534396  0.30892993  0.20311264    -0.85000
O691        O  0.32927165  0.16351152  0.20831825    -0.84800
O692        O  0.40114471  0.19323745  0.25165299    -0.85200
O693        O  0.40470545  0.27652500  0.24713268    -0.84700
O694        O  0.36869968  0.16341074  0.25239850    -0.85700
O695        O  0.37478993  0.30887964  0.24562734    -0.84900
O696        O  0.32585422  0.19864708  0.32152913    -0.85300
O697        O  0.33065597  0.19354099  0.17606651    -0.85000
O698        O  0.33480317  0.27661370  0.17311975    -0.84700
O699        O  0.33009373  0.28175450  0.31871282    -0.85100
O700        O  0.40209216  0.23571546  0.29053981    -0.85400
O701        O  0.40415447  0.23272861  0.20741919    -0.86700
Zr702      Zr  0.32888721  0.23952026  0.29895934     2.83100
Zr703      Zr  0.33172362  0.23586635  0.19561270     2.83500
Zr704      Zr  0.32821025  0.18617250  0.24914434     2.84100
Zr705      Zr  0.33237708  0.28946047  0.24548884     2.83400
Zr706      Zr  0.38195832  0.23572731  0.24853715     2.84200
O707        O  0.35795401  0.26179206  0.22110195    -1.07300
O708        O  0.35450277  0.21181348  0.27478500    -1.06800
C709        C  0.39387585  0.23616430  0.31383899     1.07900
C710        C  0.39712115  0.23205157  0.18369441     1.10500
C711        C  0.32497818  0.17488471  0.31465546     1.08100
C712        C  0.33108025  0.30498835  0.31030805     1.08400
C713        C  0.33595352  0.30035654  0.17991667     1.08000
C714        C  0.33006028  0.17032801  0.18455412     1.07600
C715        C  0.39247267  0.17010201  0.25287268     1.08000
C716        C  0.39797271  0.30031451  0.24615351     1.07500
H717        H  0.36645855  0.19826447  0.21306839     0.34200
O718        O  0.35590464  0.20979671  0.22295397    -1.28400
H719        H  0.36744782  0.27411162  0.28361660     0.34200
O720        O  0.35658693  0.26354166  0.27301091    -1.29700
C721        C  0.84187249  0.11985567  0.62454651     0.18300
C722        C  0.86514007  0.10755489  0.61912867    -0.10800
C723        C  0.86666473  0.09000742  0.59889102    -0.11600
C724        C  0.84492305  0.08470337  0.58402899     0.19900
C725        C  0.82164708  0.09689700  0.58956532    -0.13700
C726        C  0.82012539  0.11442540  0.60977283    -0.12000
C727        C  0.84661261  0.06756000  0.56248904     0.00900
C728        C  0.84759108  0.05437470  0.54354208    -0.32000
C729        C  0.84028970  0.13827715  0.64501104     0.02200
C730        C  0.83862891  0.15400494  0.66185452    -0.33600
H731        H  0.88208984  0.11165303  0.63040848     0.13300
H732        H  0.88479268  0.08078254  0.59469058     0.13100
H733        H  0.80475556  0.09303689  0.57811484     0.13000
H734        H  0.80205955  0.12386424  0.61376603     0.12000
C735        C  0.71458196  0.23156576  0.62456969     0.18300
C736        C  0.71594724  0.21341792  0.60479137    -0.10800
C737        C  0.69778947  0.21365215  0.58501540    -0.11600
C738        C  0.67814667  0.23201279  0.58490241     0.19900
C739        C  0.67660471  0.24994312  0.60484654    -0.13700
C740        C  0.69475048  0.24970392  0.62461952    -0.12000
C741        C  0.66029222  0.23306770  0.56379766     0.00900
C742        C  0.64661826  0.23408415  0.54514141    -0.32000
C743        C  0.73379647  0.23204586  0.64447154     0.02200
C744        C  0.74988002  0.23310415  0.66109910    -0.33600
H745        H  0.73118361  0.19930366  0.60450151     0.13300
H746        H  0.69925331  0.19974255  0.56965947     0.13100
H747        H  0.66158771  0.26429026  0.60494437     0.13000
H748        H  0.69349321  0.26384186  0.63978108     0.12000
C749        C  0.71013729  0.23369395  0.86532953     0.18300
C750        C  0.68759272  0.22033717  0.85945938    -0.10800
C751        C  0.66758152  0.21925829  0.87726835    -0.11600
C752        C  0.67001716  0.23151574  0.90105915     0.19900
C753        C  0.69268211  0.24462770  0.90704609    -0.13700
C754        C  0.71270830  0.24570935  0.88922145    -0.12000
C755        C  0.64893313  0.23125843  0.91889843     0.00900
C756        C  0.63031216  0.23111116  0.93261609    -0.32000
C757        C  0.73044387  0.23523349  0.84670751     0.02200
C758        C  0.74714497  0.23616944  0.83075826    -0.33600
H759        H  0.68541415  0.21094680  0.84106023     0.13300
H760        H  0.65013549  0.20909453  0.87239713     0.13100
H761        H  0.69476296  0.25420333  0.92535462     0.13000
H762        H  0.73007340  0.25606041  0.89397679     0.12000
C763        C  0.71068186  0.35567061  0.74647828     0.18300
C764        C  0.71420608  0.37986360  0.73529868    -0.10800
C765        C  0.69446764  0.39804557  0.73610624    -0.11600
C766        C  0.67119103  0.39205578  0.74812580     0.19900
C767        C  0.66772431  0.36784701  0.75923087    -0.13700
C768        C  0.68740564  0.34971355  0.75841859    -0.12000
C769        C  0.65054303  0.41034608  0.74888019     0.00900
C770        C  0.63176409  0.42377754  0.74999859    -0.32000
C771        C  0.73088043  0.33692782  0.74592459     0.02200
C772        C  0.74745887  0.32085457  0.74599588    -0.33600
H773        H  0.73215456  0.38464573  0.72600589     0.13300
H774        H  0.69732790  0.41667443  0.72737509     0.13100
H775        H  0.64977920  0.36298288  0.76848980     0.13000
H776        H  0.68448327  0.33106914  0.76710811     0.12000
C777        C  0.67552331  0.23848227  0.41147288     0.18300
C778        C  0.68465694  0.26233314  0.40312967    -0.10800
C779        C  0.70238756  0.26366850  0.38306533    -0.11600
C780        C  0.71108340  0.24114277  0.37130553     0.19900
C781        C  0.70144264  0.21734031  0.37919922    -0.13700
C782        C  0.68371772  0.21600449  0.39926677    -0.12000
C783        C  0.73070830  0.24227961  0.35196738     0.00900
C784        C  0.74749030  0.24253212  0.33609168    -0.32000
C785        C  0.65890993  0.23705089  0.43343811     0.02200
C786        C  0.64619478  0.23631311  0.45271302    -0.33600
H787        H  0.67848995  0.27982461  0.41248388     0.13300
H788        H  0.70970273  0.28217379  0.37710088     0.13100
H789        H  0.70803397  0.19980898  0.37021479     0.13000
H790        H  0.67683175  0.19745813  0.40560270     0.12000
C791        C  0.84876292  0.08591699  0.41161198     0.18300
C792        C  0.86550937  0.10691654  0.41103648    -0.10800
C793        C  0.86330816  0.12534599  0.39168650    -0.11600
C794        C  0.84431570  0.12288363  0.37286031     0.19900
C795        C  0.82783350  0.10166796  0.37319769    -0.13700
C796        C  0.83003653  0.08323204  0.39255320    -0.12000
C797        C  0.84141687  0.14237324  0.35354137     0.00900
C798        C  0.83899850  0.15873366  0.33739165    -0.32000
C799        C  0.84986659  0.06801155  0.43256351     0.02200
C800        C  0.85008217  0.05444078  0.45126115    -0.33600
H801        H  0.87996959  0.10925341  0.42576100     0.13300
H802        H  0.87616242  0.14166282  0.39160039     0.13100
H803        H  0.81308899  0.09956795  0.35872405     0.13000
H804        H  0.81690337  0.06714330  0.39289788     0.12000
C805        C  0.49475322  0.22087367  0.09548931     0.18300
C806        C  0.49835965  0.21353343  0.12107574    -0.10800
C807        C  0.47814202  0.21529183  0.13858477    -0.11600
C808        C  0.45417359  0.22441813  0.13062788     0.19900
C809        C  0.45040131  0.23133981  0.10492644    -0.13700
C810        C  0.47065934  0.22959018  0.08738812    -0.12000
C811        C  0.43373224  0.22721600  0.14900390     0.00900
C812        C  0.41697298  0.22961613  0.16476961    -0.32000
C813        C  0.51620059  0.22059847  0.07808632     0.02200
C814        C  0.53539388  0.22110288  0.06519258    -0.33600
H815        H  0.51691778  0.20684507  0.12757972     0.13300
H816        H  0.48129615  0.20987156  0.15838557     0.13100
H817        H  0.43194352  0.23840600  0.09854693     0.13000
H818        H  0.46765580  0.23539561  0.06767521     0.12000
C819        C  0.70795864  0.23198222  0.13422533     0.18300
C820        C  0.68372629  0.24128562  0.14102576    -0.10800
C821        C  0.66336843  0.23948198  0.12374542    -0.11600
C822        C  0.66717768  0.22837745  0.09959989     0.19900
C823        C  0.69142777  0.21909061  0.09276246    -0.13700
C824        C  0.71181552  0.22089374  0.11007089    -0.12000
C825        C  0.64608453  0.22648157  0.08201801     0.00900
C826        C  0.62757602  0.22532507  0.06829111    -0.32000
C827        C  0.72870175  0.23361444  0.15221214     0.02200
C828        C  0.74559592  0.23498584  0.16784510    -0.33600
H829        H  0.68057053  0.24985357  0.15968321     0.13300
H830        H  0.64467157  0.24669079  0.12921293     0.13100
H831        H  0.69453853  0.21044758  0.07413694     0.13000
H832        H  0.73050294  0.21361089  0.10467511     0.12000
C833        C  0.45473528  0.35376102  0.24321252     0.18300
C834        C  0.46530100  0.36040421  0.21943176    -0.10800
C835        C  0.48526100  0.37823761  0.21814291    -0.11600
C836        C  0.49464568  0.38949302  0.24063834     0.19900
C837        C  0.48389128  0.38304798  0.26437852    -0.13700
C838        C  0.46394849  0.36522063  0.26566749    -0.12000
C839        C  0.51601509  0.40679650  0.23960564     0.00900
C840        C  0.53476049  0.42023248  0.23975875    -0.32000
C841        C  0.43474408  0.33489230  0.24459399     0.02200
C842        C  0.41805206  0.31899025  0.24550314    -0.33600
H843        H  0.45828915  0.35162230  0.20196498     0.13300
H844        H  0.49354909  0.38301249  0.19970655     0.13100
H845        H  0.49112420  0.39157017  0.28188469     0.13000
H846        H  0.45590183  0.36019502  0.28414445     0.12000
C847        C  0.70738000  0.35681310  0.24871777     0.18300
C848        C  0.69433563  0.36421039  0.27095634    -0.10800
C849        C  0.67434031  0.38191317  0.26941199    -0.11600
C850        C  0.66739296  0.39224482  0.24563794     0.19900
C851        C  0.68055016  0.38498558  0.22340175    -0.13700
C852        C  0.70056355  0.36727110  0.22494753    -0.12000
C853        C  0.64591870  0.40926190  0.24400698     0.00900
C854        C  0.62682161  0.42209998  0.24321855    -0.32000
C855        C  0.72750821  0.33821722  0.25023236     0.02200
C856        C  0.74428688  0.32247456  0.25109159    -0.33600
H857        H  0.69947293  0.35614626  0.28939684     0.13300
H858        H  0.66411045  0.38730945  0.28666444     0.13100
H859        H  0.67515128  0.39276505  0.20491381     0.13000
H860        H  0.71055254  0.36157385  0.20764980     0.12000
C861        C  0.98492118  0.40211621  0.75433908     0.18300
C862        C  0.97480474  0.39154247  0.77685855    -0.10800
C863        C  0.95807716  0.37063487  0.77554583    -0.11600
C864        C  0.95138032  0.36022663  0.75170922     0.19900
C865        C  0.96180465  0.37055402  0.72920739    -0.13700
C866        C  0.97853906  0.39146910  0.73052122    -0.12000
C867        C  0.93311047  0.33959996  0.75033752     0.00900
C868        C  0.91720320  0.32285334  0.74950269    -0.32000
C869        C  0.00105282  0.42444427  0.75562682     0.02200
C870        C  0.01374391  0.44371412  0.75676470    -0.33600
H871        H  0.97956164  0.39967294  0.79536882     0.13300
H872        H  0.95009056  0.36282826  0.79305869     0.13100
H873        H  0.95671930  0.36268509  0.71067275     0.13000
H874        H  0.98620525  0.39954717  0.71298828     0.12000
C875        C  0.98493610  0.57662717  0.75241973     0.18300
C876        C  0.96437473  0.57595046  0.73515786    -0.10800
C877        C  0.94651683  0.59592409  0.73473546    -0.11600
C878        C  0.94912094  0.61665736  0.75159255     0.19900
C879        C  0.96990326  0.61754949  0.76859758    -0.13700
C880        C  0.98777696  0.59754902  0.76902594    -0.12000
C881        C  0.93015547  0.63667719  0.75177308     0.00900
C882        C  0.91406239  0.65325565  0.75186398    -0.32000
C883        C  0.00223109  0.55520014  0.75392050     0.02200
C884        C  0.01520057  0.53614358  0.75547759    -0.33600
H885        H  0.96193381  0.55980549  0.72231855     0.13300
H886        H  0.93052207  0.59504653  0.72151580     0.13100
H887        H  0.97209268  0.63350433  0.78171488     0.13000
H888        H  0.00354150  0.59820376  0.78252973     0.12000
C889        C  0.83635162  0.36131369  0.63096026     0.18300
C890        C  0.81325861  0.36848817  0.61932997    -0.10800
C891        C  0.81254007  0.38955984  0.60283441    -0.11600
C892        C  0.83492576  0.40350654  0.59788882     0.19900
C893        C  0.85805418  0.39636525  0.60954723    -0.13700
C894        C  0.85877348  0.37526279  0.62606790    -0.12000
C895        C  0.83401392  0.42538392  0.58120243     0.00900
C896        C  0.83315124  0.44427633  0.56797937    -0.32000
C897        C  0.83672327  0.34009964  0.64846329     0.02200
C898        C  0.83611990  0.32285614  0.66376119    -0.33600
H899        H  0.79580398  0.35789203  0.62313924     0.13300
H900        H  0.79454541  0.39503182  0.59402678     0.13100
H901        H  0.87544164  0.40714236  0.60594635     0.13000
H902        H  0.87669712  0.36993320  0.63511185     0.12000
C903        C  0.83309167  0.61874246  0.63136142     0.18300
C904        C  0.81010429  0.61046308  0.62027070    -0.10800
C905        C  0.81019177  0.59002722  0.60299887    -0.11600
C906        C  0.83327273  0.57784830  0.59677992     0.19900
C907        C  0.85634346  0.58637217  0.60754026    -0.13700
C908        C  0.85625564  0.60682331  0.62483671    -0.12000
C909        C  0.83305638  0.55576903  0.58045366     0.00900
C910        C  0.83264931  0.53646457  0.56789943    -0.32000
C911        C  0.83272258  0.63897550  0.64996629     0.02200
C912        C  0.83209019  0.65560575  0.66591879    -0.33600
H913        H  0.79210916  0.61955840  0.62525388     0.13300
H914        H  0.79225753  0.58345638  0.59483958     0.13100
H915        H  0.87426806  0.57695571  0.60289861     0.13000
H916        H  0.87412500  0.61308948  0.63336863     0.12000
C917        C  0.71003370  0.75698540  0.86754478     0.18300
C918        C  0.69911295  0.78104818  0.87260540    -0.10800
C919        C  0.67864771  0.78317430  0.88990999    -0.11600
C920        C  0.66909190  0.76125062  0.90223704     0.19900
C921        C  0.68046731  0.73737177  0.89759302    -0.13700
C922        C  0.70085223  0.73525201  0.88034158    -0.12000
C923        C  0.64680746  0.76271051  0.91856291     0.00900
C924        C  0.62740802  0.76212323  0.93119507    -0.32000
C925        C  0.72991395  0.75417535  0.84855097     0.02200
C926        C  0.74618569  0.75081672  0.83244515    -0.33600
H927        H  0.70606411  0.79801627  0.86284144     0.13300
H928        H  0.66998864  0.80175146  0.89328198     0.13100
H929        H  0.67323245  0.72028541  0.90693026     0.13000
H930        H  0.70913135  0.71657009  0.87660579     0.12000
C931        C  0.70724950  0.62563247  0.74731041     0.18300
C932        C  0.70411151  0.60946354  0.76850566    -0.10800
C933        C  0.68422028  0.59155370  0.76882945    -0.11600
C934        C  0.66745798  0.58977491  0.74794901     0.19900
C935        C  0.67060072  0.60594126  0.72673757    -0.13700
C936        C  0.69050153  0.62385655  0.72641236    -0.12000
C937        C  0.64648758  0.57202191  0.74870594     0.00900
C938        C  0.62805793  0.55822530  0.74981123    -0.32000
C939        C  0.72755872  0.64413541  0.74711722     0.02200
C940        C  0.74455883  0.65968716  0.74728004    -0.33600
H941        H  0.71695641  0.61077574  0.78477477     0.13300
H942        H  0.68180607  0.57923680  0.78538148     0.13100
H943        H  0.65759966  0.60480302  0.71058046     0.13000
H944        H  0.69277149  0.63635254  0.70997269     0.12000
C945        C  0.84584711  0.89255682  0.58624645     0.18300
C946        C  0.86775458  0.87910628  0.59402994    -0.10800
C947        C  0.86659409  0.86260058  0.61512141    -0.11600
C948        C  0.84351736  0.85947839  0.62849343     0.19900
C949        C  0.82175862  0.87336239  0.62106724    -0.13700
C950        C  0.82291872  0.88986855  0.59997160    -0.12000
C951        C  0.84184655  0.84114067  0.64900613     0.00900
C952        C  0.84020945  0.82510989  0.66555231    -0.32000
C953        C  0.84660501  0.90816671  0.56352709     0.02200
C954        C  0.84713196  0.92037165  0.54391830    -0.33600
H955        H  0.88556620  0.88101201  0.58351984     0.13300
H956        H  0.88351741  0.85191962  0.62068683     0.13100
H957        H  0.80381032  0.87105069  0.63125981     0.13000
H958        H  0.80585596  0.90014464  0.59408399     0.12000
C959        C  0.71508025  0.74751828  0.62635930     0.18300
C960        C  0.70588063  0.77121419  0.61761769    -0.10800
C961        C  0.68858151  0.77216104  0.59713659    -0.11600
C962        C  0.68042946  0.74941605  0.58539093     0.19900
C963        C  0.68927911  0.72573962  0.59445319    -0.13700
C964        C  0.70654571  0.72479393  0.61490045    -0.12000
C965        C  0.66384840  0.75026085  0.56340135     0.00900
C966        C  0.65086925  0.75006837  0.54431090    -0.32000
C967        C  0.73387610  0.74641838  0.64649481     0.02200
C968        C  0.74992979  0.74500716  0.66304226    -0.33600
H969        H  0.71235995  0.78890935  0.62635526     0.13300
H970        H  0.68188574  0.79057355  0.59022841     0.13100
H971        H  0.68313733  0.70804877  0.58546401     0.13000
H972        H  0.71353882  0.70638444  0.62151591     0.12000
C973        C  0.67914445  0.74646092  0.41161255     0.18300
C974        C  0.67849802  0.72550391  0.39485480    -0.10800
C975        C  0.69604386  0.72397556  0.37470062    -0.11600
C976        C  0.71424998  0.74339545  0.37130906     0.19900
C977        C  0.71485493  0.76439971  0.38800648    -0.13700
C978        C  0.69731205  0.76592671  0.40816091    -0.12000
C979        C  0.73237568  0.74174087  0.35076457     0.00900
C980        C  0.74774955  0.74061098  0.33366430    -0.32000
C981        C  0.66201400  0.74739528  0.43307371     0.02200
C982        C  0.64902068  0.74770633  0.45210223    -0.33600
H983        H  0.66462489  0.71027679  0.39751950     0.13300
H984        H  0.69550943  0.70764503  0.36187445     0.13100
H985        H  0.72893237  0.77947415  0.38551865     0.13000
H986        H  0.69805891  0.78210760  0.42116533     0.12000
C987        C  0.84405438  0.88965797  0.41090057     0.18300
C988        C  0.82611604  0.89453073  0.39150398    -0.10800
C989        C  0.82337361  0.87731621  0.37111216    -0.11600
C990        C  0.83854888  0.85517046  0.37006097     0.19900
C991        C  0.85652170  0.85035028  0.38942893    -0.13700
C992        C  0.85926189  0.86754811  0.40979896    -0.12000
C993        C  0.83569249  0.83731010  0.34922838     0.00900
C994        C  0.83385418  0.82185322  0.33214632    -0.32000
C995        C  0.84622057  0.90672771  0.43245821     0.02200
C996        C  0.84752501  0.91984430  0.45143412    -0.33600
H997        H  0.81414933  0.91149245  0.39225012     0.13300
H998        H  0.80938730  0.88120349  0.35625999     0.13100
H999        H  0.86832410  0.83326518  0.38883371     0.13000
H1000       H  0.87307829  0.86351556  0.42477456     0.12000
C1001       C  0.70527051  0.74258991  0.13076551     0.18300
C1002       C  0.70653390  0.75991175  0.11027251    -0.10800
C1003       C  0.68620821  0.76161887  0.09288510    -0.11600
C1004       C  0.66459434  0.74598781  0.09595778     0.19900
C1005       C  0.66332664  0.72870719  0.11647486    -0.13700
C1006       C  0.68363330  0.72700282  0.13384806    -0.12000
C1007       C  0.64344715  0.74792074  0.07844328     0.00900
C1008       C  0.62480236  0.74931293  0.06492798    -0.32000
C1009       C  0.72598465  0.74104704  0.14883561     0.02200
C1010       C  0.74304763  0.74005194  0.16433876    -0.33600
H1011       H  0.72315727  0.77211672  0.10780065     0.13300
H1012       H  0.68729950  0.77513457  0.07714939     0.13100
H1013       H  0.64662284  0.71663586  0.11907583     0.13000
H1014       H  0.68243660  0.71362278  0.14969403     0.12000
C1015       C  0.70546605  0.62123067  0.24667391     0.18300
C1016       C  0.70971440  0.59559505  0.25354803    -0.10800
C1017       C  0.68929278  0.57819429  0.25375367    -0.11600
C1018       C  0.66460409  0.58642412  0.24709455     0.19900
C1019       C  0.66045295  0.61198479  0.23999957    -0.13700
C1020       C  0.68082811  0.62934708  0.23979702    -0.12000
C1021       C  0.64329592  0.56898790  0.24799633     0.00900
C1022       C  0.62441160  0.55572671  0.24862224    -0.32000
C1023       C  0.72620111  0.63937522  0.24695133     0.02200
C1024       C  0.74308505  0.65512521  0.24718642    -0.33600
H1025       H  0.72871488  0.58913473  0.25889523     0.13300
H1026       H  0.69269375  0.55845909  0.25927698     0.13100
H1027       H  0.64142939  0.61852988  0.23482971     0.13000
H1028       H  0.67734576  0.64911929  0.23445260     0.12000
C1029       C  0.98507785  0.57731232  0.23670140     0.18300
C1030       C  0.95899683  0.57102158  0.23706806    -0.10800
C1031       C  0.94055252  0.59032478  0.23854855    -0.11600
C1032       C  0.94809369  0.61603786  0.23966969     0.19900
C1033       C  0.97420152  0.62242902  0.23912256    -0.13700
C1034       C  0.99271514  0.60305372  0.23764564    -0.12000
C1035       C  0.92891998  0.63570388  0.24151445     0.00900
C1036       C  0.91249082  0.65183998  0.24300112    -0.32000
C1037       C  0.00365065  0.55703132  0.23581720     0.02200
C1038       C  0.01692813  0.53817219  0.23550170    -0.33600
H1039       H  0.95293054  0.55116233  0.23636083     0.13300
H1040       H  0.92042895  0.58520029  0.23893436     0.13100
H1041       H  0.98020358  0.64229920  0.23995324     0.13000
H1042       H  0.01285943  0.60809870  0.23738532     0.12000
C1043       C  0.98202860  0.40673695  0.23834994     0.18300
C1044       C  0.95876739  0.40853062  0.22500339    -0.10800
C1045       C  0.94101065  0.38845427  0.22614968    -0.11600
C1046       C  0.94643885  0.36650083  0.24065964     0.19900
C1047       C  0.96968757  0.36470770  0.25398289    -0.13700
C1048       C  0.98743700  0.38477818  0.25283953    -0.12000
C1049       C  0.92812500  0.34590932  0.24209231     0.00900
C1050       C  0.91277004  0.32870265  0.24362630    -0.32000
C1051       C  0.00005666  0.42764213  0.23755567     0.02200
C1052       C  0.01417435  0.44595206  0.23697740    -0.33600
H1053       H  0.95433013  0.42546525  0.21381732     0.13300
H1054       H  0.92306644  0.39007493  0.21581546     0.13100
H1055       H  0.97404705  0.34784468  0.26530349     0.13000
H1056       H  0.00529975  0.38322150  0.26331403     0.12000
C1057       C  0.83356969  0.61810410  0.36797460     0.18300
C1058       C  0.85249978  0.59911480  0.36665922    -0.10800
C1059       C  0.85336737  0.57972554  0.38512028    -0.11600
C1060       C  0.83531338  0.57922540  0.40498481     0.19900
C1061       C  0.81672974  0.59855369  0.40667683    -0.13700
C1062       C  0.81587211  0.61798691  0.38819441    -0.12000
C1063       C  0.83488945  0.55786780  0.42240594     0.00900
C1064       C  0.83444516  0.53861602  0.43515918    -0.32000
C1065       C  0.83202116  0.63729278  0.34823246     0.02200
C1066       C  0.83102607  0.65318628  0.33149466    -0.33600
H1067       H  0.86629706  0.59905211  0.35113507     0.13300
H1068       H  0.86774617  0.56481155  0.38358473     0.13100
H1069       H  0.80261458  0.59828591  0.42190899     0.13000
H1070       H  0.80118398  0.63262331  0.38941022     0.12000
C1071       C  0.83001221  0.36560503  0.36687459     0.18300
C1072       C  0.82542805  0.39063946  0.35835905    -0.10800
C1073       C  0.82583679  0.41098659  0.37573761    -0.11600
C1074       C  0.83083698  0.40638643  0.40170535     0.19900
C1075       C  0.83526307  0.38132382  0.41030258    -0.13700
C1076       C  0.83485279  0.36093306  0.39288695    -0.12000
C1077       C  0.83175299  0.42755545  0.41927378     0.00900
C1078       C  0.83248078  0.44626677  0.43275182    -0.32000
C1079       C  0.83000969  0.34487301  0.34876683     0.02200
C1080       C  0.83009422  0.32797876  0.33305110    -0.33600
H1081       H  0.82167735  0.39443158  0.33828428     0.13300
H1082       H  0.82240507  0.43030882  0.36891535     0.13100
H1083       H  0.83915800  0.37759217  0.43035906     0.13000
H1084       H  0.83842768  0.34161641  0.39964416     0.12000
C1085       C  0.45508604  0.62130214  0.75041075     0.18300
C1086       C  0.45402456  0.59798748  0.73712471    -0.10800
C1087       C  0.47435806  0.58060516  0.73890962    -0.11600
C1088       C  0.49577196  0.58648391  0.75400866     0.19900
C1089       C  0.49675510  0.60975674  0.76738470    -0.13700
C1090       C  0.47644038  0.62712584  0.76559820    -0.12000
C1091       C  0.51720506  0.56918944  0.75497407     0.00900
C1092       C  0.53614519  0.55598104  0.75506915    -0.32000
C1093       C  0.43432335  0.63928923  0.74857160     0.02200
C1094       C  0.41723413  0.65477172  0.74774051    -0.33600
H1095       H  0.43757676  0.59331749  0.72533630     0.13300
H1096       H  0.47348659  0.56272146  0.72838347     0.13100
H1097       H  0.51329094  0.61455218  0.77900093     0.13000
H1098       H  0.47742156  0.64511259  0.77594802     0.12000
C1099       C  0.45564798  0.74704673  0.86242676     0.18300
C1100       C  0.45110784  0.75690953  0.88700119    -0.10800
C1101       C  0.47115981  0.75844725  0.90473983    -0.11600
C1102       C  0.49576361  0.75012329  0.89790559     0.19900
C1103       C  0.50022706  0.74016689  0.87337857    -0.13700
C1104       C  0.48021500  0.73863522  0.85567374    -0.12000
C1105       C  0.51669453  0.75226605  0.91566453     0.00900
C1106       C  0.53532871  0.75402165  0.92916371    -0.32000
C1107       C  0.43518879  0.74550696  0.84407938     0.02200
C1108       C  0.41827673  0.74398302  0.82846201    -0.33600
H1109       H  0.43214780  0.76345541  0.89239043     0.13300
H1110       H  0.46753565  0.76622579  0.92365188     0.13100
H1111       H  0.51920334  0.73373399  0.86790585     0.13000
H1112       H  0.48390311  0.73097510  0.83672298     0.12000
C1113       C  0.21540229  0.61265736  0.76340106     0.18300
C1114       C  0.22236790  0.58750022  0.75717084    -0.10800
C1115       C  0.20495227  0.56750116  0.76082431    -0.11600
C1116       C  0.18051718  0.57258436  0.77073410     0.19900
C1117       C  0.17364080  0.59770228  0.77727697    -0.13700
C1118       C  0.19108705  0.61773072  0.77362617    -0.12000
C1119       C  0.16240886  0.55201436  0.77334107     0.00900
C1120       C  0.14843309  0.53366877  0.77406759    -0.32000
C1121       C  0.23325578  0.63319104  0.75930055     0.02200
C1122       C  0.24862318  0.65012319  0.75626847    -0.33600
H1123       H  0.24116406  0.58338701  0.74934562     0.13300
H1124       H  0.21043506  0.54812910  0.75569588     0.13100
H1125       H  0.15478211  0.60181117  0.78494060     0.13000
H1126       H  0.18558321  0.63713568  0.77859312     0.12000
C1127       C  0.32954944  0.61258176  0.63255943     0.18300
C1128       C  0.30858768  0.60920579  0.61615010    -0.10800
C1129       C  0.30888468  0.58953160  0.59801198    -0.11600
C1130       C  0.33016768  0.57328264  0.59625608     0.19900
C1131       C  0.35123210  0.57681700  0.61250810    -0.13700
C1132       C  0.35093446  0.59648543  0.63064353    -0.12000
C1133       C  0.32992045  0.55222006  0.57866243     0.00900
C1134       C  0.32957087  0.53348546  0.56528312    -0.32000
C1135       C  0.32900181  0.63236274  0.65156635     0.02200
C1136       C  0.32870995  0.64898851  0.66748430    -0.33600
H1137       H  0.29197760  0.62160101  0.61754457     0.13300
H1138       H  0.29245806  0.58679850  0.58560083     0.13100
H1139       H  0.36769980  0.56420658  0.61135742     0.13000
H1140       H  0.36721715  0.59899571  0.64329315     0.12000
C1141       C  0.31797259  0.89091801  0.58523942     0.18300
C1142       C  0.29996348  0.89071445  0.60515934    -0.10800
C1143       C  0.30115752  0.87182867  0.62417466    -0.11600
C1144       C  0.32033799  0.85303355  0.62332641     0.19900
C1145       C  0.33834775  0.85322633  0.60340529    -0.13700
C1146       C  0.33715360  0.87210804  0.58439351    -0.12000
C1147       C  0.32167389  0.83371019  0.64298684     0.00900
C1148       C  0.32302567  0.81777201  0.65967480    -0.32000
C1149       C  0.31631183  0.90983963  0.56519503     0.02200
C1150       C  0.31482780  0.92427393  0.54719000    -0.33600
H1151       H  0.28496500  0.90506109  0.60592257     0.13300
H1152       H  0.28713744  0.87186320  0.63949632     0.13100
H1153       H  0.35326313  0.83879191  0.60256329     0.13000
H1154       H  0.35109260  0.87197699  0.56899641     0.12000
C1155       C  0.44617325  0.73661506  0.62326523     0.18300
C1156       C  0.46946029  0.72381340  0.62722219    -0.10800
C1157       C  0.48855537  0.72458551  0.60842817    -0.11600
C1158       C  0.48437864  0.73818868  0.58566776     0.19900
C1159       C  0.46106744  0.75091252  0.58169486    -0.13700
C1160       C  0.44199487  0.75013641  0.60046121    -0.12000
C1161       C  0.50346511  0.73847911  0.56586453     0.00900
C1162       C  0.51741077  0.73877216  0.54750756    -0.32000
C1163       C  0.42675813  0.73626205  0.64277637     0.02200
C1164       C  0.41080630  0.73628098  0.65944897    -0.33600
H1165       H  0.47284873  0.71330492  0.64481533     0.13300
H1166       H  0.50646233  0.71454940  0.61158721     0.13100
H1167       H  0.45761757  0.76134051  0.56406005     0.13000
H1168       H  0.42405520  0.76009314  0.59722367     0.12000
C1169       C  0.45617797  0.35890805  0.75088187     0.18300
C1170       C  0.47213990  0.35919742  0.77247288    -0.10800
C1171       C  0.49294700  0.37604290  0.77359699    -0.11600
C1172       C  0.49788586  0.39271830  0.75313987     0.19900
C1173       C  0.48165101  0.39279194  0.73172782    -0.13700
C1174       C  0.46081586  0.37591770  0.73059937    -0.12000
C1175       C  0.52017803  0.40895541  0.75371537     0.00900
C1176       C  0.53942542  0.42173777  0.75389213    -0.32000
C1177       C  0.43555484  0.34063072  0.74941898     0.02200
C1178       C  0.41880470  0.32470189  0.74910928    -0.33600
H1179       H  0.46871228  0.34614652  0.78826696     0.13300
H1180       H  0.50538940  0.37579548  0.79022429     0.13100
H1181       H  0.48532311  0.40559314  0.71578583     0.13000
H1182       H  0.44858265  0.37588180  0.71381727     0.12000
C1183       C  0.49665068  0.23337408  0.90376356     0.18300
C1184       C  0.48949223  0.25694313  0.89307496    -0.10800
C1185       C  0.46918205  0.25812482  0.87567039    -0.11600
C1186       C  0.45600882  0.23572906  0.86892086     0.19900
C1187       C  0.46283416  0.21223852  0.87999541    -0.13700
C1188       C  0.48315508  0.21105537  0.89739802    -0.12000
C1189       C  0.43604362  0.23670301  0.85004230     0.00900
C1190       C  0.41955610  0.23736944  0.83394283    -0.32000
C1191       C  0.51869169  0.23194446  0.92013701     0.02200
C1192       C  0.53800702  0.23104593  0.93268827    -0.33600
H1193       H  0.49989697  0.27428207  0.89783248     0.13300
H1194       H  0.46402963  0.27637428  0.86718331     0.13100
H1195       H  0.45273692  0.19482535  0.87486363     0.13000
H1196       H  0.48862789  0.19272967  0.90550947     0.12000
C1197       C  0.32558773  0.40194257  0.59679904     0.18300
C1198       C  0.34905674  0.39048890  0.60298026    -0.10800
C1199       C  0.35003123  0.37110349  0.62139311    -0.11600
C1200       C  0.32754583  0.36317268  0.63368348     0.19900
C1201       C  0.30401158  0.37443539  0.62734229    -0.13700
C1202       C  0.30303713  0.39384994  0.60891288    -0.12000
C1203       C  0.32876508  0.34375459  0.65306233     0.00900
C1204       C  0.33002822  0.32748875  0.66932105    -0.32000
C1205       C  0.32496323  0.42290675  0.57905102     0.02200
C1206       C  0.32539194  0.44156011  0.56552736    -0.33600
H1207       H  0.36660781  0.39677590  0.59382322     0.13300
H1208       H  0.36830505  0.36249179  0.62622882     0.13100
H1209       H  0.28653141  0.36840352  0.63680322     0.13000
H1210       H  0.28483145  0.40275251  0.60436040     0.12000
C1211       C  0.17836784  0.40212168  0.77118293     0.18300
C1212       C  0.17218812  0.37987364  0.75747582    -0.10800
C1213       C  0.19031306  0.36029644  0.75482207    -0.11600
C1214       C  0.21466736  0.36295605  0.76582879     0.19900
C1215       C  0.22075671  0.38510496  0.77972049    -0.13700
C1216       C  0.20264657  0.40466135  0.78237696    -0.12000
C1217       C  0.23354274  0.34315715  0.76264279     0.00900
C1218       C  0.24959830  0.32676617  0.76014492    -0.32000
C1219       C  0.16037497  0.42292128  0.77273336     0.02200
C1220       C  0.14681990  0.44160010  0.77320735    -0.33600
H1221       H  0.15352077  0.37780841  0.74861364     0.13300
H1222       H  0.18543738  0.34323449  0.74402688     0.13100
H1223       H  0.23954686  0.38734115  0.78828439     0.13000
H1224       H  0.20766610  0.42186883  0.79287602     0.12000
C1225       C  0.31894561  0.09072181  0.58703150     0.18300
C1226       C  0.33991039  0.10744066  0.58846672    -0.10800
C1227       C  0.34170266  0.12501784  0.60858607    -0.11600
C1228       C  0.32253818  0.12593016  0.62735059     0.19900
C1229       C  0.30154417  0.10923790  0.62593270    -0.13700
C1230       C  0.29974724  0.09164281  0.60578663    -0.12000
C1231       C  0.32447430  0.14399773  0.64801980     0.00900
C1232       C  0.32626478  0.15934603  0.66514789    -0.32000
C1233       C  0.31691460  0.07320320  0.56587434     0.02200
C1234       C  0.31576448  0.05973306  0.54716264    -0.33600
H1235       H  0.35478575  0.10696123  0.57397903     0.13300
H1236       H  0.35797793  0.13789341  0.60949689     0.13100
H1237       H  0.28660041  0.10985628  0.64034389     0.13000
H1238       H  0.28339429  0.07888024  0.60476781     0.12000
C1239       C  0.32121606  0.12189044  0.37196260     0.18300
C1240       C  0.29833048  0.10909517  0.37780831    -0.10800
C1241       C  0.29742533  0.09195036  0.39841699    -0.11600
C1242       C  0.31939852  0.08754613  0.41322908     0.19900
C1243       C  0.34237247  0.10003394  0.40711090    -0.13700
C1244       C  0.34327760  0.11716228  0.38651840    -0.12000
C1245       C  0.31809359  0.07124623  0.43543768     0.00900
C1246       C  0.31695068  0.05872276  0.45482052    -0.32000
C1247       C  0.32201038  0.14032452  0.35147119     0.02200
C1248       C  0.32317563  0.15610157  0.33463462    -0.33600
H1249       H  0.28115568  0.11262055  0.36667539     0.13300
H1250       H  0.27954089  0.08245761  0.40304370     0.13100
H1251       H  0.35944988  0.09683974  0.41849128     0.13000
H1252       H  0.36106327  0.12696561  0.38215906     0.12000
C1253       C  0.44636994  0.24560741  0.62547262     0.18300
C1254       C  0.43734726  0.24056929  0.60070392    -0.10800
C1255       C  0.45443399  0.23992782  0.58010171    -0.11600
C1256       C  0.48060535  0.24433553  0.58417898     0.19900
C1257       C  0.48959745  0.24974171  0.60890093    -0.13700
C1258       C  0.47248467  0.25038227  0.62953429    -0.12000
C1259       C  0.49809544  0.24295329  0.56293763     0.00900
C1260       C  0.51151911  0.24142347  0.54421584    -0.32000
C1261       C  0.42889381  0.24512605  0.64673334     0.02200
C1262       C  0.41384235  0.24414563  0.66419039    -0.33600
H1263       H  0.41718241  0.23686265  0.59737510     0.13300
H1264       H  0.44728920  0.23577339  0.56104650     0.13100
H1265       H  0.50979570  0.25322135  0.61224079     0.13000
H1266       H  0.47962467  0.25430772  0.64863765     0.12000
C1267       C  0.44746265  0.23269327  0.37054677     0.18300
C1268       C  0.47113288  0.24516334  0.36806634    -0.10800
C1269       C  0.48855119  0.24508016  0.38847365    -0.11600
C1270       C  0.48234953  0.23249594  0.41139142     0.19900
C1271       C  0.45887252  0.21964795  0.41365275    -0.13700
C1272       C  0.44148347  0.21973024  0.39327765    -0.12000
C1273       C  0.49945653  0.23357600  0.43301467     0.00900
C1274       C  0.51244308  0.23474024  0.45210054    -0.32000
C1275       C  0.42890503  0.23388679  0.35020631     0.02200
C1276       C  0.41287888  0.23503706  0.33362343    -0.33600
H1277       H  0.47593478  0.25525249  0.35055561     0.13300
H1278       H  0.50662457  0.25512495  0.38653520     0.13100
H1279       H  0.45385119  0.20991154  0.43130026     0.13000
H1280       H  0.42323269  0.21003935  0.39538838     0.12000
C1281       C  0.49247171  0.58515777  0.25141840     0.18300
C1282       C  0.49606787  0.60893391  0.26333803    -0.10800
C1283       C  0.47647138  0.62713733  0.26311142    -0.11600
C1284       C  0.45320123  0.62161835  0.25096241     0.19900
C1285       C  0.44951625  0.59779041  0.23911254    -0.13700
C1286       C  0.46916307  0.57954964  0.23932814    -0.12000
C1287       C  0.43319776  0.64048405  0.25069806     0.00900
C1288       C  0.41672512  0.65661787  0.25079982    -0.32000
C1289       C  0.51322152  0.56713455  0.25086915     0.02200
C1290       C  0.53212974  0.55396204  0.25035713    -0.33600
H1291       H  0.51409507  0.61346514  0.27260965     0.13300
H1292       H  0.47949019  0.64552166  0.27230106     0.13100
H1293       H  0.43155867  0.59338949  0.22965296     0.13000
H1294       H  0.46627612  0.56124687  0.22994136     0.12000
C1295       C  0.49434228  0.75409923  0.09749787     0.18300
C1296       C  0.49800138  0.76742773  0.12056594    -0.10800
C1297       C  0.47884632  0.76740610  0.13937697    -0.11600
C1298       C  0.45591931  0.75401860  0.13523629     0.19900
C1299       C  0.45219721  0.74086001  0.11210134    -0.13700
C1300       C  0.47134927  0.74087216  0.09330262    -0.12000
C1301       C  0.43648134  0.75305334  0.15488979     0.00900
C1302       C  0.41992402  0.75109154  0.17095445    -0.32000
C1303       C  0.51451908  0.75345367  0.07858348     0.02200
C1304       C  0.53272214  0.75294963  0.06428627    -0.33600
H1305       H  0.51574432  0.77763362  0.12409457     0.13300
H1306       H  0.48201102  0.77759036  0.15719855     0.13100
H1307       H  0.43459216  0.73037774  0.10870850     0.13000
H1308       H  0.46831931  0.73040137  0.07562803     0.12000
C1309       C  0.48282479  0.73486457  0.41673647     0.18300
C1310       C  0.49065481  0.74076435  0.39175070    -0.10800
C1311       C  0.47270061  0.74122662  0.37187067    -0.11600
C1312       C  0.44689893  0.73579963  0.37696389     0.19900
C1313       C  0.43907764  0.72991951  0.40195367    -0.13700
C1314       C  0.45701822  0.72945452  0.42181743    -0.12000
C1315       C  0.42841763  0.73629635  0.35660219     0.00900
C1316       C  0.41277317  0.73676235  0.33966996    -0.32000
C1317       C  0.50103858  0.73499115  0.43734681     0.02200
C1318       C  0.51510812  0.73574226  0.45559933    -0.33600
H1319       H  0.51055478  0.74509573  0.38768392     0.13300
H1320       H  0.47889974  0.74584569  0.35259346     0.13100
H1321       H  0.41914946  0.72575016  0.40606738     0.13000
H1322       H  0.45077159  0.72499541  0.44112000     0.12000
C1323       C  0.31242381  0.89390200  0.41521445     0.18300
C1324       C  0.33575180  0.89123533  0.40218069    -0.10800
C1325       C  0.33834649  0.87290278  0.38277425    -0.11600
C1326       C  0.31764742  0.85705612  0.37628403     0.19900
C1327       C  0.29417267  0.85995418  0.38908082    -0.13700
C1328       C  0.29157560  0.87831367  0.40851836    -0.12000
C1329       C  0.32069026  0.83767428  0.35675006     0.00900
C1330       C  0.32349396  0.82162995  0.34026690    -0.32000
C1331       C  0.31046056  0.91158932  0.43635720     0.02200
C1332       C  0.31001533  0.92509995  0.45512768    -0.33600
H1333       H  0.35204447  0.90306537  0.40727912     0.13300
H1334       H  0.35657467  0.87089015  0.37303193     0.13100
H1335       H  0.27800403  0.84785260  0.38424010     0.13000
H1336       H  0.27347759  0.88009132  0.41855213     0.12000
C1337       C  0.21327345  0.61947544  0.23689572     0.18300
C1338       C  0.19875189  0.61520101  0.21467450    -0.10800
C1339       C  0.18174913  0.59442837  0.21350088    -0.11600
C1340       C  0.17921302  0.57787278  0.23453568     0.19900
C1341       C  0.19348652  0.58239030  0.25682534    -0.13700
C1342       C  0.21044382  0.60311031  0.25799712    -0.12000
C1343       C  0.16276049  0.55571383  0.23309252     0.00900
C1344       C  0.15002410  0.53640421  0.23253226    -0.32000
C1345       C  0.23154776  0.64017698  0.23807967     0.02200
C1346       C  0.24748136  0.65682636  0.24017835    -0.33600
H1347       H  0.20077431  0.62771261  0.19821852     0.13300
H1348       H  0.17085072  0.59109882  0.19613931     0.13100
H1349       H  0.19174483  0.56970850  0.27318467     0.13000
H1350       H  0.22156730  0.60620537  0.27526096     0.12000
C1351       C  0.21517450  0.36301762  0.23914979     0.18300
C1352       C  0.19908693  0.36861623  0.25991680    -0.10800
C1353       C  0.18157799  0.38885749  0.25823822    -0.11600
C1354       C  0.18009089  0.40352138  0.23577776     0.19900
C1355       C  0.19612772  0.39785731  0.21500294    -0.13700
C1356       C  0.21362413  0.37763604  0.21668124    -0.12000
C1357       C  0.16287874  0.42499934  0.23436430     0.00900
C1358       C  0.14968398  0.44392933  0.23343849    -0.32000
C1359       C  0.23346390  0.34248277  0.24091007     0.02200
C1360       C  0.24905036  0.32548562  0.24206525    -0.33600
H1361       H  0.20018368  0.35745540  0.27740171     0.13300
H1362       H  0.16937595  0.39319669  0.27447493     0.13100
H1363       H  0.19524641  0.40918964  0.19761671     0.13000
H1364       H  0.22602548  0.37349272  0.20054376     0.12000
C1365       C  0.33664224  0.61377608  0.36569261     0.18300
C1366       C  0.35567714  0.59505586  0.36250920    -0.10800
C1367       C  0.35773632  0.57478155  0.37999515    -0.11600
C1368       C  0.34079587  0.57312953  0.40079007     0.19900
C1369       C  0.32191397  0.59195516  0.40409163    -0.13700
C1370       C  0.31985017  0.61221688  0.38660950    -0.12000
C1371       C  0.34191147  0.55149950  0.41797048     0.00900
C1372       C  0.34161152  0.53261007  0.43133338    -0.32000
C1373       C  0.33426982  0.63447231  0.34746585     0.02200
C1374       C  0.33260828  0.65175515  0.33212648    -0.33600
H1375       H  0.36878414  0.59603116  0.34642885     0.13300
H1376       H  0.37231930  0.56026658  0.37714246     0.13100
H1377       H  0.30861181  0.59080753  0.41999999     0.13000
H1378       H  0.30506042  0.62654783  0.38929725     0.12000
C1379       C  0.33544906  0.40080512  0.40059676     0.18300
C1380       C  0.34836461  0.40344735  0.37721152    -0.10800
C1381       C  0.34735830  0.38383232  0.35902525    -0.11600
C1382       C  0.33341320  0.36147990  0.36413483     0.19900
C1383       C  0.32059132  0.35872675  0.38758916    -0.13700
C1384       C  0.32158852  0.37839063  0.40580995    -0.12000
C1385       C  0.33222438  0.34150565  0.34520865     0.00900
C1386       C  0.33153629  0.32492647  0.32916356    -0.32000
C1387       C  0.33587569  0.42157770  0.41867701     0.02200
C1388       C  0.33639240  0.44037184  0.43206650    -0.33600
H1389       H  0.35904067  0.42075638  0.37296636     0.13300
H1390       H  0.35732912  0.38614408  0.34095178     0.13100
H1391       H  0.30975065  0.34149211  0.39170675     0.13000
H1392       H  0.31144386  0.37621256  0.42380052     0.12000
C1393       C  0.16825857  0.25596965  0.40037396     0.18300
C1394       C  0.17214297  0.23245637  0.38800660    -0.10800
C1395       C  0.19149162  0.22999624  0.36967640    -0.11600
C1396       C  0.20700000  0.25105630  0.36364966     0.19900
C1397       C  0.20320774  0.27455621  0.37609754    -0.13700
C1398       C  0.18383276  0.27702041  0.39444446    -0.12000
C1399       C  0.22674535  0.24853958  0.34465965     0.00900
C1400       C  0.24336210  0.24638997  0.32880985    -0.32000
C1401       C  0.14757138  0.25859860  0.41830308     0.02200
C1402       C  0.12902364  0.25975621  0.43194878    -0.33600
H1403       H  0.16007560  0.21611876  0.39237290     0.13300
H1404       H  0.19427456  0.21175682  0.36013148     0.13100
H1405       H  0.21511665  0.29095154  0.37152886     0.13000
H1406       H  0.18085890  0.29532038  0.40381079     0.12000
C1407       C  0.95575242  0.24957841  0.36735105     0.18300
C1408       C  0.97450386  0.23033837  0.36747894    -0.10800
C1409       C  0.99489305  0.23152502  0.38486136    -0.11600
C1410       C  0.99663175  0.25195371  0.40222981     0.19900
C1411       C  0.97785814  0.27117172  0.40213939    -0.13700
C1412       C  0.95746211  0.26998717  0.38474668    -0.12000
C1413       C  0.01811802  0.25362174  0.41950117     0.00900
C1414       C  0.03694635  0.25527688  0.43282560    -0.32000
C1415       C  0.93493224  0.24842532  0.34923644     0.02200
C1416       C  0.91782129  0.24719664  0.33372162    -0.33600
H1417       H  0.97341716  0.21450158  0.35408237     0.13300
H1418       H  0.00936938  0.21662947  0.38464474     0.13100
H1419       H  0.97908440  0.28712909  0.41537688     0.13000
H1420       H  0.94311604  0.28500699  0.38478999     0.12000
C1421       C  0.20611317  0.12196390  0.24731602     0.18300
C1422       C  0.19950197  0.11023302  0.27053608    -0.10800
C1423       C  0.17989934  0.09200469  0.27120326    -0.11600
C1424       C  0.16690226  0.08546505  0.24864435     0.19900
C1425       C  0.17361832  0.09711456  0.22539774    -0.13700
C1426       C  0.19322322  0.11534386  0.22473076    -0.12000
C1427       C  0.14579407  0.06784586  0.24956160     0.00900
C1428       C  0.12692455  0.05460612  0.25035244    -0.32000
C1429       C  0.22603759  0.14086629  0.24671988     0.02200
C1430       C  0.24280547  0.15666015  0.24651456    -0.33600
H1431       H  0.20937477  0.11528978  0.28809720     0.13300
H1432       H  0.17469829  0.08323448  0.28929863     0.13100
H1433       H  0.16353069  0.09231290  0.20789027     0.13000
H1434       H  0.19821397  0.12436917  0.20669817     0.12000
C1435       C  0.99548853  0.08841268  0.25314793     0.18300
C1436       C  0.99174587  0.10469922  0.23212826    -0.10800
C1437       C  0.97191344  0.12271109  0.23244517    -0.11600
C1438       C  0.95574422  0.12456322  0.25379816     0.19900
C1439       C  0.95945418  0.10825869  0.27483999    -0.13700
C1440       C  0.97931736  0.09022051  0.27452251    -0.12000
C1441       C  0.93546617  0.14327047  0.25402232     0.00900
C1442       C  0.91865108  0.15912138  0.25357913    -0.32000
C1443       C  0.01637813  0.07041780  0.25296575     0.02200
C1444       C  0.03481267  0.05650838  0.25258338    -0.33600
H1445       H  0.00422721  0.10355571  0.21556625     0.13300
H1446       H  0.96923588  0.13523851  0.21609291     0.13100
H1447       H  0.94707850  0.10954722  0.29146793     0.13000
H1448       H  0.98213922  0.07780551  0.29093577     0.12000
C1449       C  0.99250467  0.72421342  0.39990276     0.18300
C1450       C  0.98036983  0.70255781  0.38963868    -0.10800
C1451       C  0.96064083  0.70543274  0.37171353    -0.11600
C1452       C  0.95296556  0.72997524  0.36393802     0.19900
C1453       C  0.96497317  0.75165011  0.37430329    -0.13700
C1454       C  0.98471544  0.74877384  0.39223610    -0.12000
C1455       C  0.93297321  0.73281759  0.34514989     0.00900
C1456       C  0.91626789  0.73452192  0.32928288    -0.32000
C1457       C  0.01366473  0.72120303  0.41739529     0.02200
C1458       C  0.03240416  0.71879632  0.43073790    -0.33600
H1459       H  0.98632682  0.68347807  0.39529474     0.13300
H1460       H  0.95150457  0.68854275  0.36379103     0.13100
H1461       H  0.95920841  0.77071581  0.36839833     0.13000
H1462       H  0.99406108  0.76565624  0.39991910     0.12000
C1463       C  0.16520958  0.71914008  0.39972423     0.18300
C1464       C  0.18893828  0.72770595  0.40896950    -0.10800
C1465       C  0.20940860  0.73140786  0.39201462    -0.11600
C1466       C  0.20617655  0.72658968  0.36577573     0.19900
C1467       C  0.18254434  0.71774384  0.35662335    -0.13700
C1468       C  0.16211574  0.71404389  0.37354563    -0.12000
C1469       C  0.22693333  0.73082048  0.34811643     0.00900
C1470       C  0.24392376  0.73384942  0.33275602    -0.32000
C1471       C  0.14367474  0.71651672  0.41675557     0.02200
C1472       C  0.12468910  0.71514339  0.42985025    -0.33600
H1473       H  0.19151533  0.73177479  0.42917101     0.13300
H1474       H  0.22762930  0.73820545  0.39930188     0.13100
H1475       H  0.17985637  0.71391290  0.33638781     0.13000
H1476       H  0.14383475  0.70748911  0.36618291     0.12000
C1477       C  0.99354236  0.88995409  0.25385173     0.18300
C1478       C  0.99650673  0.86512760  0.26368119    -0.10800
C1479       C  0.97638901  0.84751832  0.26199869    -0.11600
C1480       C  0.95322887  0.85464812  0.25044881     0.19900
C1481       C  0.95018114  0.87951307  0.24074200    -0.13700
C1482       C  0.97032292  0.89714208  0.24242342    -0.12000
C1483       C  0.93274120  0.83634395  0.24841850     0.00900
C1484       C  0.91588990  0.82062730  0.24704626    -0.32000
C1485       C  0.01467854  0.90763752  0.25477848     0.02200
C1486       C  0.03342429  0.92113498  0.25506293    -0.33600
H1487       H  0.01442286  0.85933486  0.27244912     0.13300
H1488       H  0.97893614  0.82833056  0.26955057     0.13100
H1489       H  0.93233674  0.88519802  0.23176324     0.13000
H1490       H  0.96787520  0.91625253  0.23465883     0.12000
C1491       C  0.16790944  0.89327603  0.25184849     0.18300
C1492       C  0.17555228  0.88191491  0.22874272    -0.10800
C1493       C  0.19656966  0.86527857  0.22827425    -0.11600
C1494       C  0.21000433  0.85995584  0.25091526     0.19900
C1495       C  0.20265663  0.87170631  0.27391632    -0.13700
C1496       C  0.18164251  0.88833387  0.27438516    -0.12000
C1497       C  0.23062668  0.84166132  0.25079783     0.00900
C1498       C  0.24734139  0.82571872  0.25106601    -0.32000
C1499       C  0.14532640  0.90904857  0.25264264     0.02200
C1500       C  0.12580186  0.92135723  0.25329812    -0.33600
H1501       H  0.16501474  0.88556925  0.21122077     0.13300
H1502       H  0.20206659  0.85625465  0.21039366     0.13100
H1503       H  0.21289221  0.86767885  0.29153411     0.13000
H1504       H  0.17584689  0.89697449  0.29236011     0.12000
C1505       C  0.20508874  0.72466906  0.63241979     0.18300
C1506       C  0.20016623  0.70082171  0.62103661    -0.10800
C1507       C  0.18060351  0.69835767  0.60282573    -0.11600
C1508       C  0.16588433  0.71973771  0.59587079     0.19900
C1509       C  0.17085027  0.74358871  0.60722243    -0.13700
C1510       C  0.19040564  0.74605257  0.62542149    -0.12000
C1511       C  0.14505061  0.71708425  0.57789727     0.00900
C1512       C  0.12645663  0.71534518  0.56423315    -0.32000
C1513       C  0.22510746  0.72718350  0.65131060     0.02200
C1514       C  0.24192205  0.72921125  0.66707811    -0.33600
H1515       H  0.21136383  0.68414018  0.62631252     0.13300
H1516       H  0.17684329  0.67978502  0.59432131     0.13100
H1517       H  0.15949375  0.76022378  0.60214058     0.13000
H1518       H  0.19399883  0.76457787  0.63410339     0.12000
C1519       C  0.95502724  0.72746493  0.63235473     0.18300
C1520       C  0.96680527  0.74878665  0.62104934    -0.10800
C1521       C  0.98656969  0.74536982  0.60326738    -0.11600
C1522       C  0.99462903  0.72061050  0.59665437     0.19900
C1523       C  0.98275943  0.69925924  0.60784050    -0.13700
C1524       C  0.96297825  0.70267896  0.62564181    -0.12000
C1525       C  0.01567394  0.71725115  0.57912446     0.00900
C1526       C  0.03422859  0.71525711  0.56549173    -0.32000
C1527       C  0.93511196  0.73106747  0.65112583     0.02200
C1528       C  0.91859585  0.73396687  0.66704176    -0.33600
H1529       H  0.96084856  0.76802823  0.62612641     0.13300
H1530       H  0.99570966  0.76201729  0.59485021     0.13100
H1531       H  0.98893438  0.68003052  0.60297804     0.13000
H1532       H  0.95403748  0.68604619  0.63429835     0.12000
C1533       C  0.20744478  0.85454869  0.75081743     0.18300
C1534       C  0.19934485  0.86592816  0.77375556    -0.10800
C1535       C  0.17922637  0.88364694  0.77354250    -0.11600
C1536       C  0.16721206  0.89006367  0.75039416     0.19900
C1537       C  0.17543878  0.87879888  0.72745216    -0.13700
C1538       C  0.19554346  0.86109937  0.72766429    -0.12000
C1539       C  0.14600403  0.90764571  0.75024206     0.00900
C1540       C  0.12750882  0.92145770  0.75000353    -0.32000
C1541       C  0.22753893  0.83572188  0.75098918     0.02200
C1542       C  0.24407768  0.81963294  0.75051089    -0.33600
H1543       H  0.20840710  0.86094876  0.79176877     0.13300
H1544       H  0.17291774  0.89217666  0.79139722     0.13100
H1545       H  0.16619728  0.88354500  0.70946731     0.13000
H1546       H  0.20165533  0.85236066  0.70983981     0.12000
C1547       C  0.99578257  0.89307085  0.75106043     0.18300
C1548       C  0.99936276  0.86993447  0.76422074    -0.10800
C1549       C  0.97960856  0.85190962  0.76528762    -0.11600
C1550       C  0.95621170  0.85697137  0.75317556     0.19900
C1551       C  0.95253004  0.88019062  0.74017121    -0.13700
C1552       C  0.97231441  0.89824003  0.73909842    -0.12000
C1553       C  0.93622713  0.83808462  0.75354519     0.00900
C1554       C  0.91955340  0.82216337  0.75324194    -0.32000
C1555       C  0.01655038  0.91104128  0.74947261     0.02200
C1556       C  0.03540890  0.92429461  0.74875160    -0.33600
H1557       H  0.01748986  0.86575803  0.77346507     0.13300
H1558       H  0.98264227  0.83398094  0.77533780     0.13100
H1559       H  0.93448778  0.88421715  0.73070299     0.13000
H1560       H  0.96940160  0.91605333  0.72881777     0.12000
C1561       C  0.20906634  0.25103763  0.63500088     0.18300
C1562       C  0.19869971  0.27512370  0.62912652    -0.10800
C1563       C  0.17914433  0.27727373  0.61088580    -0.11600
C1564       C  0.16989632  0.25535616  0.59838887     0.19900
C1565       C  0.18037047  0.23129135  0.60417451    -0.13700
C1566       C  0.19992169  0.22914183  0.62241191    -0.12000
C1567       C  0.14896657  0.25739405  0.58046546     0.00900
C1568       C  0.13038347  0.25868966  0.56674720    -0.32000
C1569       C  0.22887328  0.24875276  0.65409750     0.02200
C1570       C  0.24544162  0.24689649  0.67011501    -0.33600
H1571       H  0.20560258  0.29218363  0.63875840     0.13300
H1572       H  0.17109048  0.29595874  0.60670097     0.13100
H1573       H  0.17327116  0.21418893  0.59476703     0.13000
H1574       H  0.20777426  0.21042019  0.62681790     0.12000
C1575       C  0.95644918  0.24955772  0.63097656     0.18300
C1576       C  0.97046606  0.27245384  0.63009720    -0.10800
C1577       C  0.99089971  0.27500262  0.61295287    -0.11600
C1578       C  0.99735251  0.25467016  0.59664028     0.19900
C1579       C  0.98323361  0.23184200  0.59741172    -0.13700
C1580       C  0.96280369  0.22929361  0.61455175    -0.12000
C1581       C  0.01909575  0.25683209  0.57989456     0.00900
C1582       C  0.03811651  0.25817988  0.56690544    -0.32000
C1583       C  0.93586544  0.24667865  0.64903519     0.02200
C1584       C  0.91892939  0.24425992  0.66452230    -0.33600
H1585       H  0.96573698  0.28820992  0.64278045     0.13300
H1586       H  0.00180994  0.29267705  0.61259695     0.13100
H1587       H  0.98818119  0.21595877  0.58497469     0.13000
H1588       H  0.95211555  0.21149172  0.61514911     0.12000
C1589       C  0.21022261  0.12333444  0.75189857     0.18300
C1590       C  0.21175533  0.10203672  0.73561192    -0.10800
C1591       C  0.19182145  0.08413863  0.73506450    -0.11600
C1592       C  0.17034845  0.08751585  0.75081670     0.19900
C1593       C  0.16889921  0.10874742  0.76719424    -0.13700
C1594       C  0.18881401  0.12663111  0.76773900    -0.12000
C1595       C  0.14929479  0.06985116  0.74951017     0.00900
C1596       C  0.13053526  0.05649329  0.74823546    -0.32000
C1597       C  0.23042135  0.14199698  0.75215277     0.02200
C1598       C  0.24709452  0.15792313  0.75230888    -0.33600
H1599       H  0.22823445  0.09937875  0.72325325     0.13300
H1600       H  0.19302988  0.06785010  0.72223427     0.13100
H1601       H  0.15228969  0.11158938  0.77933800     0.13000
H1602       H  0.18745257  0.14308195  0.78035062     0.12000
C1603       C  0.95514311  0.11933543  0.74316965     0.18300
C1604       C  0.96641669  0.11029561  0.76576677    -0.10800
C1605       C  0.98724285  0.09355314  0.76453271    -0.11600
C1606       C  0.99684395  0.08579037  0.74070557     0.19900
C1607       C  0.98523500  0.09438825  0.71806763    -0.13700
C1608       C  0.96436093  0.11115514  0.71930462    -0.12000
C1609       C  0.01926618  0.06990570  0.73972263     0.00900
C1610       C  0.03862640  0.05740443  0.74040392    -0.32000
C1611       C  0.93489733  0.13786745  0.74455090     0.02200
C1612       C  0.91844594  0.15395222  0.74587991    -0.33600
H1613       H  0.95941714  0.11655526  0.78429354     0.13300
H1614       H  0.99614580  0.08702468  0.78212775     0.13100
H1615       H  0.99257346  0.08850787  0.69955020     0.13000
H1616       H  0.95573844  0.11809365  0.70172647     0.12000
C1617       C  0.44463118  0.11248250  0.25878810     0.18300
C1618       C  0.46749911  0.11660361  0.27221541    -0.10800
C1619       C  0.48550723  0.09690335  0.27436562    -0.11600
C1620       C  0.48069158  0.07304216  0.26307942     0.19900
C1621       C  0.45778882  0.06889620  0.24965396    -0.13700
C1622       C  0.43976782  0.08860717  0.24750676    -0.12000
C1623       C  0.49907396  0.05270067  0.26548655     0.00900
C1624       C  0.51345113  0.03474252  0.26724866    -0.32000
C1625       C  0.42622651  0.13279376  0.25659988     0.02200
C1626       C  0.41090061  0.14992973  0.25487675    -0.33600
H1627       H  0.47138706  0.13501644  0.28100837     0.13300
H1628       H  0.50312918  0.10025007  0.28482878     0.13100
H1629       H  0.45387238  0.05046370  0.24090773     0.13000
H1630       H  0.42210777  0.08525383  0.23709731     0.12000
C1631       C  0.45082624  0.86200297  0.26314296     0.18300
C1632       C  0.47521794  0.85794321  0.27363924    -0.10800
C1633       C  0.49264280  0.87825938  0.27521697    -0.11600
C1634       C  0.48565414  0.90260356  0.26629051     0.19900
C1635       C  0.46135323  0.90655827  0.25561106    -0.13700
C1636       C  0.44397240  0.88629286  0.25403641    -0.12000
C1637       C  0.50305974  0.92378169  0.26834066     0.00900
C1638       C  0.51603954  0.94279847  0.26942664    -0.32000
C1639       C  0.43258170  0.84146874  0.26193543     0.02200
C1640       C  0.41654414  0.82495948  0.26059429    -0.33600
H1641       H  0.48066902  0.83918998  0.28071975     0.13300
H1642       H  0.51141202  0.87505362  0.28350819     0.13100
H1643       H  0.45579620  0.92533681  0.24866746     0.13000
H1644       H  0.42515344  0.88958914  0.24588439     0.12000
C1645       C  0.33345075  0.11362945  0.13109963     0.18300
C1646       C  0.31278463  0.09690048  0.12745622    -0.10800
C1647       C  0.31464459  0.07701714  0.10960756    -0.11600
C1648       C  0.33716092  0.07381492  0.09532258     0.19900
C1649       C  0.35776459  0.09067780  0.09881626    -0.13700
C1650       C  0.35590097  0.11057993  0.11667588    -0.12000
C1651       C  0.33933194  0.05263956  0.07783447     0.00900
C1652       C  0.34047760  0.03385322  0.06446440    -0.32000
C1653       C  0.33178062  0.13363004  0.14993276     0.02200
C1654       C  0.33069524  0.15031071  0.16582946    -0.33600
H1655       H  0.29536150  0.09909421  0.13854825     0.13300
H1656       H  0.29865059  0.06399893  0.10712734     0.13100
H1657       H  0.37529962  0.08828852  0.08794897     0.13000
H1658       H  0.37199731  0.12342350  0.11939722     0.12000
C1659       C  0.34019936  0.86427120  0.13470385     0.18300
C1660       C  0.36038551  0.88197201  0.13442887    -0.10800
C1661       C  0.36120519  0.90109591  0.11566930    -0.11600
C1662       C  0.34188752  0.90255565  0.09706954     0.19900
C1663       C  0.32186466  0.88465548  0.09713761    -0.13700
C1664       C  0.32104815  0.86551524  0.11590468    -0.12000
C1665       C  0.34205377  0.92316572  0.07876058     0.00900
C1666       C  0.34204585  0.94165859  0.06492217    -0.32000
C1667       C  0.33885506  0.84516491  0.15453805     0.02200
C1668       C  0.33746753  0.82901394  0.17099792    -0.33600
H1669       H  0.37529202  0.88117407  0.14886829     0.13300
H1670       H  0.37669385  0.91493509  0.11586494     0.13100
H1671       H  0.30675563  0.88569942  0.08292651     0.13000
H1672       H  0.30535931  0.85190281  0.11594753     0.12000
C1673       C  0.71378948  0.11549796  0.73822120     0.18300
C1674       C  0.69448512  0.11345474  0.75679794    -0.10800
C1675       C  0.67623017  0.09384642  0.75520280    -0.11600
C1676       C  0.67712105  0.07615715  0.73500589     0.19900
C1677       C  0.69613004  0.07847965  0.71613611    -0.13700
C1678       C  0.71439425  0.09810858  0.71772743    -0.12000
C1679       C  0.65957211  0.05477112  0.73458425     0.00900
C1680       C  0.64620289  0.03587572  0.73525946    -0.32000
C1681       C  0.73325928  0.13503809  0.74053361     0.02200
C1682       C  0.74960485  0.15133232  0.74254033    -0.33600
H1683       H  0.69377684  0.12677352  0.77271646     0.13300
H1684       H  0.66172069  0.09219325  0.76996902     0.13100
H1685       H  0.69711643  0.06486229  0.70048392     0.13000
H1686       H  0.72919277  0.09948557  0.70322052     0.12000
C1687       C  0.71441252  0.86362884  0.74178460     0.18300
C1688       C  0.70419402  0.87346564  0.76458149    -0.10800
C1689       C  0.68602261  0.89315042  0.76378088    -0.11600
C1690       C  0.67793945  0.90306697  0.74017066     0.19900
C1691       C  0.68778324  0.89289626  0.71733041    -0.13700
C1692       C  0.70597746  0.87319044  0.71813194    -0.12000
C1693       C  0.66064227  0.92455634  0.73947546     0.00900
C1694       C  0.64739398  0.94349391  0.73910621    -0.32000
C1695       C  0.73398402  0.84421069  0.74280878     0.02200
C1696       C  0.75040700  0.82801483  0.74425666    -0.33600
H1697       H  0.71056086  0.86618851  0.78296467     0.13300
H1698       H  0.67861439  0.90092754  0.78155603     0.13100
H1699       H  0.68173183  0.90048529  0.69896710     0.13000
H1700       H  0.71372868  0.86569988  0.70037894     0.12000
C1701       C  0.82855202  0.07535712  0.90193856     0.18300
C1702       C  0.83562329  0.07039848  0.87652058    -0.10800
C1703       C  0.83751642  0.09049423  0.85891522    -0.11600
C1704       C  0.83235252  0.11568961  0.86661296     0.19900
C1705       C  0.82530325  0.12070397  0.89207094    -0.13700
C1706       C  0.82341142  0.10055582  0.90972389    -0.12000
C1707       C  0.83378477  0.13617925  0.84815981     0.00900
C1708       C  0.83441203  0.15278357  0.83207247    -0.32000
C1709       C  0.82678677  0.05443150  0.91981019     0.02200
C1710       C  0.82608383  0.03568814  0.93329159    -0.33600
H1711       H  0.83964609  0.05098496  0.87031027     0.13300
H1712       H  0.84290595  0.08637711  0.83928541     0.13100
H1713       H  0.82119229  0.14011359  0.89821932     0.13000
H1714       H  0.81793572  0.10459919  0.92934507     0.12000
C1715       C  0.82857341  0.86198252  0.86915598     0.18300
C1716       C  0.85138767  0.87431378  0.87608791    -0.10800
C1717       C  0.85089621  0.89459730  0.89358000    -0.11600
C1718       C  0.82758639  0.90260945  0.90423014     0.19900
C1719       C  0.80477610  0.89015153  0.89745153    -0.13700
C1720       C  0.80526879  0.86984479  0.87994940    -0.12000
C1721       C  0.82699962  0.92427995  0.92124572     0.00900
C1722       C  0.82670379  0.94333977  0.93428099    -0.32000
C1723       C  0.82909373  0.84172416  0.85049913     0.02200
C1724       C  0.82991670  0.82516679  0.83443625    -0.33600
H1725       H  0.86948946  0.86841903  0.86778208     0.13300
H1726       H  0.86861930  0.90420442  0.89857549     0.13100
H1727       H  0.78663217  0.89631046  0.90546468     0.13000
H1728       H  0.78750787  0.86047246  0.87464958     0.12000
C1729       C  0.34480924  0.35294157  0.12300204     0.18300
C1730       C  0.35685923  0.37627143  0.12862639    -0.10800
C1731       C  0.36051200  0.39449460  0.10932457    -0.11600
C1732       C  0.35211760  0.38942107  0.08434784     0.19900
C1733       C  0.34019923  0.36600721  0.07868761    -0.13700
C1734       C  0.33654944  0.34778395  0.09798842    -0.12000
C1735       C  0.35549010  0.40818857  0.06446875     0.00900
C1736       C  0.35742311  0.42264670  0.04657583    -0.32000
C1737       C  0.34102845  0.33432989  0.14291916     0.02200
C1738       C  0.33835534  0.31886362  0.15982537    -0.33600
H1739       H  0.36336572  0.38037669  0.14791742     0.13300
H1740       H  0.36977728  0.41251663  0.11387466     0.13100
H1741       H  0.33367252  0.36189481  0.05940165     0.13000
H1742       H  0.32727083  0.32976055  0.09344249     0.12000
C1743       C  0.34455808  0.35808188  0.87516696     0.18300
C1744       C  0.33967933  0.35067975  0.90049782    -0.10800
C1745       C  0.34347831  0.36806865  0.92050511    -0.11600
C1746       C  0.35217862  0.39294280  0.91527811     0.19900
C1747       C  0.35712849  0.40035668  0.88994727    -0.13700
C1748       C  0.35332509  0.38293714  0.86990646    -0.12000
C1749       C  0.35561087  0.41077672  0.93600796     0.00900
C1750       C  0.35750273  0.42432886  0.95460736    -0.32000
C1751       C  0.34095014  0.33998066  0.85471263     0.02200
C1752       C  0.33848209  0.32430268  0.83794586    -0.33600
H1753       H  0.33297369  0.33148499  0.90476881     0.13300
H1754       H  0.33958220  0.36214768  0.94003108     0.13100
H1755       H  0.36384987  0.41954863  0.88571008     0.13000
H1756       H  0.35722848  0.38881461  0.85037233     0.12000
C1757       C  0.21292502  0.24224843  0.12478196     0.18300
C1758       C  0.22043782  0.25059495  0.10043105    -0.10800
C1759       C  0.20227348  0.25302535  0.08098822    -0.11600
C1760       C  0.17656412  0.24712567  0.08585948     0.19900
C1761       C  0.16893431  0.23904753  0.11028894    -0.13700
C1762       C  0.18714245  0.23662611  0.12978611    -0.12000
C1763       C  0.15850062  0.24815921  0.06526181     0.00900
C1764       C  0.14534292  0.24825957  0.04639411    -0.32000
C1765       C  0.23177153  0.23960258  0.14455673     0.02200
C1766       C  0.24792291  0.23816393  0.16090408    -0.33600
H1767       H  0.24033267  0.25503861  0.09644583     0.13300
H1768       H  0.20831002  0.25917338  0.06208382     0.13100
H1769       H  0.14907440  0.23434370  0.11413977     0.13000
H1770       H  0.18119377  0.23022062  0.14862687     0.12000
C1771       C  0.18087239  0.24255087  0.91628473     0.18300
C1772       C  0.17428838  0.23262317  0.89223356    -0.10800
C1773       C  0.19257524  0.23170181  0.87266702    -0.11600
C1774       C  0.21748145  0.24070066  0.87710526     0.19900
C1775       C  0.22414976  0.25037169  0.90124560    -0.13700
C1776       C  0.20586947  0.25129067  0.92080665    -0.12000
C1777       C  0.23600931  0.24050549  0.85674306     0.00900
C1778       C  0.25145421  0.24068449  0.83960120    -0.32000
C1779       C  0.16214117  0.24369565  0.93644270     0.02200
C1780       C  0.14776110  0.24475923  0.95446356    -0.33600
H1781       H  0.15504415  0.22572205  0.88859094     0.13300
H1782       H  0.18726416  0.22416209  0.85405926     0.13100
H1783       H  0.24337475  0.25734985  0.90487213     0.13000
H1784       H  0.21117381  0.25890438  0.93939038     0.12000
C1785       C  0.81961713  0.62010902  0.12475944     0.18300
C1786       C  0.83800165  0.62126426  0.10525317    -0.10800
C1787       C  0.83692745  0.60403945  0.08480858    -0.11600
C1788       C  0.81746983  0.58558149  0.08378185     0.19900
C1789       C  0.79914563  0.58427302  0.10337993    -0.13700
C1790       C  0.80022457  0.60153698  0.12387557    -0.12000
C1791       C  0.81609126  0.56858152  0.06217826     0.00900
C1792       C  0.81568002  0.55558880  0.04311647    -0.32000
C1793       C  0.82060526  0.63826526  0.14540885     0.02200
C1794       C  0.82207115  0.65404245  0.16216976    -0.33600
H1795       H  0.85304679  0.63557875  0.10576848     0.13300
H1796       H  0.85113185  0.60524104  0.06970153     0.13100
H1797       H  0.78397848  0.57009959  0.10270522     0.13000
H1798       H  0.78590494  0.60052792  0.13888529     0.12000
C1799       C  0.82299049  0.62053559  0.87008762     0.18300
C1800       C  0.79882874  0.61338610  0.87937092    -0.10800
C1801       C  0.79687172  0.59556306  0.89928526    -0.11600
C1802       C  0.81907961  0.58484791  0.90991763     0.19900
C1803       C  0.84320371  0.59166622  0.90031446    -0.13700
C1804       C  0.84515973  0.60948116  0.88041580    -0.12000
C1805       C  0.81729318  0.56803183  0.93162850     0.00900
C1806       C  0.81647691  0.55521010  0.95078991    -0.32000
C1807       C  0.82507088  0.63974649  0.85050261     0.02200
C1808       C  0.82666448  0.65613757  0.83435266    -0.33600
H1809       H  0.78157996  0.62186777  0.87149648     0.13300
H1810       H  0.77813556  0.59049662  0.90667813     0.13100
H1811       H  0.86048417  0.58356757  0.90851360     0.13000
H1812       H  0.86392435  0.61491936  0.87336558     0.12000
C1813       C  0.98389104  0.72907710  0.08509275     0.18300
C1814       C  0.98004270  0.75174503  0.09895227    -0.10800
C1815       C  0.96173861  0.75256363  0.11848082    -0.11600
C1816       C  0.94718263  0.73074486  0.12419103     0.19900
C1817       C  0.95111174  0.70800301  0.11044354    -0.13700
C1818       C  0.96943839  0.70718278  0.09089462    -0.12000
C1819       C  0.92804183  0.73193107  0.14394187     0.00900
C1820       C  0.91205913  0.73355297  0.16050479    -0.32000
C1821       C  0.00180786  0.72864394  0.06417899     0.02200
C1822       C  0.01550477  0.72867556  0.04560133    -0.33600
H1823       H  0.99099162  0.76882471  0.09449442     0.13300
H1824       H  0.95879379  0.77023903  0.12898878     0.13100
H1825       H  0.93991147  0.69103160  0.11469504     0.13000
H1826       H  0.97215823  0.68961082  0.08015545     0.12000
C1827       C  0.94895578  0.73275093  0.87362905     0.18300
C1828       C  0.95023339  0.75238725  0.89188660    -0.10800
C1829       C  0.96802017  0.75099228  0.91186851    -0.11600
C1830       C  0.98465060  0.72997469  0.91368454     0.19900
C1831       C  0.98345380  0.71035257  0.89537413    -0.13700
C1832       C  0.96563834  0.71175028  0.87535924    -0.12000
C1833       C  0.00241359  0.72843631  0.93473496     0.00900
C1834       C  0.01599722  0.72808539  0.95342515    -0.32000
C1835       C  0.93033187  0.73409373  0.85334214     0.02200
C1836       C  0.91450274  0.73542322  0.83657230    -0.33600
H1837       H  0.93740633  0.76868825  0.89074625     0.13300
H1838       H  0.96871084  0.76621878  0.92597998     0.13100
H1839       H  0.99615208  0.69396543  0.89665225     0.13000
H1840       H  0.96478025  0.69644334  0.86134608     0.12000
C1841       C  0.44762956  0.11565105  0.74784348     0.18300
C1842       C  0.44720940  0.09712774  0.76729339    -0.10800
C1843       C  0.46372681  0.07604190  0.76611581    -0.11600
C1844       C  0.48073418  0.07340263  0.74549323     0.19900
C1845       C  0.48107744  0.09187134  0.72599153    -0.13700
C1846       C  0.46455664  0.11295877  0.72716825    -0.12000
C1847       C  0.49759832  0.05161169  0.74424771     0.00900
C1848       C  0.51107373  0.03286642  0.74327634    -0.32000
C1849       C  0.43042382  0.13717450  0.74888295     0.02200
C1850       C  0.41546229  0.15476806  0.74944116    -0.33600
H1851       H  0.43410437  0.09896053  0.78330241     0.13300
H1852       H  0.46322204  0.06180588  0.78123607     0.13100
H1853       H  0.49406704  0.08995242  0.70990146     0.13000
H1854       H  0.46493968  0.12711108  0.71196710     0.12000
C1855       C  0.44766364  0.86000772  0.73661714     0.18300
C1856       C  0.46154309  0.86557822  0.75891800    -0.10800
C1857       C  0.47941914  0.88553943  0.75898704    -0.11600
C1858       C  0.48351825  0.90000951  0.73674525     0.19900
C1859       C  0.46985975  0.89425627  0.71433254    -0.13700
C1860       C  0.45196740  0.87427057  0.71426200    -0.12000
C1861       C  0.50065689  0.92160519  0.73736805     0.00900
C1862       C  0.51360632  0.94071240  0.73837690    -0.32000
C1863       C  0.42864601  0.84004409  0.73696805     0.02200
C1864       C  0.41264015  0.82342817  0.73816816    -0.33600
H1865       H  0.45832320  0.85469562  0.77631613     0.13300
H1866       H  0.48975207  0.88993080  0.77645888     0.13100
H1867       H  0.47276669  0.90543822  0.69707016     0.13000
H1868       H  0.44130245  0.87014851  0.69692434     0.12000
C1869       C  0.33275333  0.11610592  0.86701856     0.18300
C1870       C  0.30929475  0.10549511  0.87468784    -0.10800
C1871       C  0.30885822  0.08477772  0.89171052    -0.11600
C1872       C  0.33188091  0.07461975  0.90109750     0.19900
C1873       C  0.35531636  0.08528146  0.89346919    -0.13700
C1874       C  0.35575295  0.10598006  0.87645916    -0.12000
C1875       C  0.33160283  0.05265579  0.91774318     0.00900
C1876       C  0.33212936  0.03349753  0.93062783    -0.32000
C1877       C  0.33327291  0.13717481  0.84926117     0.02200
C1878       C  0.33370429  0.15452914  0.83403279    -0.33600
H1879       H  0.29140174  0.11313961  0.86742065     0.13300
H1880       H  0.29064049  0.07656603  0.89737244     0.13100
H1881       H  0.37322829  0.07746047  0.90049820     0.13000
H1882       H  0.37398941  0.11399302  0.87057558     0.12000
C1883       C  0.33377295  0.86047896  0.86473317     0.18300
C1884       C  0.35746386  0.86864091  0.87441190    -0.10800
C1885       C  0.35848224  0.88855397  0.89234232    -0.11600
C1886       C  0.33580013  0.90029439  0.90066788     0.19900
C1887       C  0.31210102  0.89168923  0.89143853    -0.13700
C1888       C  0.31108491  0.87180601  0.87352204    -0.12000
C1889       C  0.33677105  0.92205942  0.91754720     0.00900
C1890       C  0.33680149  0.94120178  0.93046783    -0.32000
C1891       C  0.33274800  0.84103915  0.84525260     0.02200
C1892       C  0.33192111  0.82479543  0.82887851    -0.33600
H1893       H  0.37511646  0.85994179  0.86776733     0.13300
H1894       H  0.37691411  0.89510364  0.89931892     0.13100
H1895       H  0.29446200  0.90068198  0.89771361     0.13000
H1896       H  0.29267403  0.86558460  0.86619418     0.12000
C1897       C  0.71567524  0.11659714  0.25961283     0.18300
C1898       C  0.69746377  0.11342725  0.24014173    -0.10800
C1899       C  0.67976307  0.09335208  0.24148018    -0.11600
C1900       C  0.68019499  0.07642665  0.26232290     0.19900
C1901       C  0.69834369  0.07966899  0.28185407    -0.13700
C1902       C  0.71604521  0.09974198  0.28051449    -0.12000
C1903       C  0.66262346  0.05523078  0.26327920     0.00900
C1904       C  0.64907513  0.03654836  0.26391058    -0.32000
C1905       C  0.73421296  0.13688569  0.25793408     0.02200
C1906       C  0.74990080  0.15373960  0.25639277    -0.33600
H1907       H  0.69707167  0.12634462  0.22387820     0.13300
H1908       H  0.66590035  0.09091221  0.22621084     0.13100
H1909       H  0.69892579  0.06658525  0.29797912     0.13000
H1910       H  0.73009613  0.10201297  0.29564120     0.12000
C1911       C  0.71304322  0.86216827  0.25621204     0.18300
C1912       C  0.71912644  0.88339983  0.27149184    -0.10800
C1913       C  0.70207499  0.90399727  0.27329417    -0.11600
C1914       C  0.67884103  0.90347426  0.25983913     0.19900
C1915       C  0.67261313  0.88214154  0.24474532    -0.13700
C1916       C  0.68968587  0.86151370  0.24294365    -0.12000
C1917       C  0.66187464  0.92519392  0.26102202     0.00900
C1918       C  0.64887338  0.94426619  0.26209001    -0.32000
C1919       C  0.73101216  0.84134594  0.25385480     0.02200
C1920       C  0.74659705  0.82436026  0.25205645    -0.33600
H1921       H  0.73712919  0.88412231  0.28182314     0.13300
H1922       H  0.70710766  0.92042371  0.28497131     0.13100
H1923       H  0.65472309  0.88156721  0.23421438     0.13000
H1924       H  0.68479107  0.84519579  0.23106433     0.12000
C1925       C  0.82991035  0.11682970  0.13449147     0.18300
C1926       C  0.81948780  0.12037565  0.10998131    -0.10800
C1927       C  0.81985504  0.10028255  0.09221843    -0.11600
C1928       C  0.83067380  0.07663480  0.09893973     0.19900
C1929       C  0.84104306  0.07310918  0.12345123    -0.13700
C1930       C  0.84067316  0.09316443  0.14118354    -0.12000
C1931       C  0.83069537  0.05569174  0.08106278     0.00900
C1932       C  0.83054717  0.03694426  0.06760754    -0.32000
C1933       C  0.82973260  0.13741126  0.15280663     0.02200
C1934       C  0.83004092  0.15432973  0.16851665    -0.33600
H1935       H  0.81109866  0.13861153  0.10463537     0.13300
H1936       H  0.81167739  0.10314423  0.07334328     0.13100
H1937       H  0.84933895  0.05484596  0.12886481     0.13000
H1938       H  0.84875824  0.09022619  0.16008905     0.12000
C1939       C  0.82811990  0.90228532  0.09561936     0.18300
C1940       C  0.80554618  0.89424318  0.10770038    -0.10800
C1941       C  0.80591171  0.87291277  0.12387681    -0.11600
C1942       C  0.82885216  0.85960957  0.12803232     0.19900
C1943       C  0.85131581  0.86729476  0.11549134    -0.13700
C1944       C  0.85094771  0.88863564  0.09929617    -0.12000
C1945       C  0.82954031  0.83899148  0.14622521     0.00900
C1946       C  0.82978288  0.82247897  0.16232542    -0.32000
C1947       C  0.82806596  0.92510450  0.08027972     0.02200
C1948       C  0.82821170  0.94467251  0.06808956    -0.33600
H1949       H  0.78781534  0.90471596  0.10498173     0.13300
H1950       H  0.78846445  0.86711649  0.13354188     0.13100
H1951       H  0.86915832  0.85713636  0.11863425     0.13000
H1952       H  0.86850118  0.89476081  0.09003372     0.12000
C1953       C  0.82207659  0.35731201  0.12609108     0.18300
C1954       C  0.83590664  0.38033315  0.12725943    -0.10800
C1955       C  0.83548749  0.39738558  0.10652741    -0.11600
C1956       C  0.82120077  0.39148593  0.08455482     0.19900
C1957       C  0.80717296  0.36859985  0.08351056    -0.13700
C1958       C  0.80759711  0.35156625  0.10421234    -0.12000
C1959       C  0.82116534  0.40851508  0.06282048     0.00900
C1960       C  0.82055175  0.42149496  0.04369704    -0.32000
C1961       C  0.82338163  0.33922466  0.14694176     0.02200
C1962       C  0.82494021  0.32366145  0.16399506    -0.33600
H1963       H  0.84720658  0.38495518  0.14405856     0.13300
H1964       H  0.84643661  0.41500660  0.10754374     0.13100
H1965       H  0.79608890  0.36382982  0.06660462     0.13000
H1966       H  0.79686667  0.33381874  0.10304924     0.12000
C1967       C  0.82110287  0.39101126  0.91056249     0.18300
C1968       C  0.84432307  0.37833042  0.90590106    -0.10800
C1969       C  0.84639555  0.36109467  0.88546494    -0.11600
C1970       C  0.82524292  0.35642948  0.86958421     0.19900
C1971       C  0.80207298  0.36926832  0.87411356    -0.13700
C1972       C  0.79999829  0.38651406  0.89456681    -0.12000
C1973       C  0.82710428  0.33798143  0.84911129     0.00900
C1974       C  0.82843073  0.32206453  0.83237936    -0.32000
C1975       C  0.81884238  0.40793495  0.93225438     0.02200
C1976       C  0.81777415  0.42103141  0.95127370    -0.33600
H1977       H  0.86073213  0.38157783  0.91821306     0.13300
H1978       H  0.86438344  0.35123568  0.88220620     0.13100
H1979       H  0.78557135  0.36575711  0.86200390     0.13000
H1980       H  0.78191853  0.39612276  0.89804924     0.12000
C1981       C  0.98141909  0.24630855  0.08459447     0.18300
C1982       C  0.98781719  0.23189732  0.10634587    -0.10800
C1983       C  0.97090310  0.23073622  0.12713098    -0.11600
C1984       C  0.94755051  0.24398314  0.12620608     0.19900
C1985       C  0.94126764  0.25854425  0.10453691    -0.13700
C1986       C  0.95815843  0.25970181  0.08377803    -0.12000
C1987       C  0.92985179  0.24252169  0.14728797     0.00900
C1988       C  0.91439010  0.24176499  0.16442752    -0.32000
C1989       C  0.99829247  0.24684556  0.06279997     0.02200
C1990       C  0.01148259  0.24716946  0.04384262    -0.33600
H1991       H  0.00573565  0.22142549  0.10714101     0.13300
H1992       H  0.97594065  0.21941871  0.14380329     0.13100
H1993       H  0.92325821  0.26885563  0.10363208     0.13000
H1994       H  0.95299896  0.27085338  0.06702865     0.12000
C1995       C  0.95190109  0.24325087  0.86857154     0.18300
C1996       C  0.95952685  0.22075599  0.88104240    -0.10800
C1997       C  0.97680005  0.22201053  0.90140744    -0.11600
C1998       C  0.98646082  0.24576308  0.90930171     0.19900
C1999       C  0.97938335  0.26821222  0.89639712    -0.13700
C2000       C  0.96209105  0.26695582  0.87600175    -0.12000
C2001       C  0.00215874  0.24718058  0.93174142     0.00900
C2002       C  0.01394215  0.24780511  0.95149495    -0.32000
C2003       C  0.93281920  0.24202158  0.84889849     0.02200
C2004       C  0.91642621  0.24067722  0.83279448    -0.33600
H2005       H  0.95170352  0.20236094  0.87538771     0.13300
H2006       H  0.98212518  0.20458152  0.91138415     0.13100
H2007       H  0.98672419  0.28666678  0.90248782     0.13000
H2008       H  0.95625931  0.28444466  0.86642354     0.12000
C2009       C  0.35041350  0.58854203  0.08851018     0.18300
C2010       C  0.37162145  0.59955138  0.10077142    -0.10800
C2011       C  0.36797426  0.61774918  0.12012997    -0.11600
C2012       C  0.34312251  0.62504841  0.12726618     0.19900
C2013       C  0.32192047  0.61392988  0.11510689    -0.13700
C2014       C  0.32556665  0.59572666  0.09576469    -0.12000
C2015       C  0.33947646  0.64402502  0.14695517     0.00900
C2016       C  0.33719880  0.65990301  0.16359079    -0.32000
C2017       C  0.35401075  0.57088744  0.06761903     0.02200
C2018       C  0.35602425  0.55752248  0.04887592    -0.33600
H2019       H  0.39092085  0.59428125  0.09519696     0.13300
H2020       H  0.38450099  0.62624760  0.12940488     0.13100
H2021       H  0.30262324  0.61944142  0.12045129     0.13000
H2022       H  0.30904057  0.58746367  0.08627902     0.12000
C2023       C  0.34827736  0.62336785  0.87444953     0.18300
C2024       C  0.32706039  0.61714991  0.88969597    -0.10800
C2025       C  0.32974588  0.60027158  0.91036744    -0.11600
C2026       C  0.35366893  0.58942155  0.91597402     0.19900
C2027       C  0.37494287  0.59556865  0.90071715    -0.13700
C2028       C  0.37225121  0.61249059  0.87999360    -0.12000
C2029       C  0.35624886  0.57241163  0.93765895     0.00900
C2030       C  0.35734582  0.55900219  0.95651364    -0.32000
C2031       C  0.34532325  0.64113813  0.85340834     0.02200
C2032       C  0.34216642  0.65633422  0.83619130    -0.33600
H2033       H  0.30844970  0.62544084  0.88566733     0.13300
H2034       H  0.31317619  0.59576252  0.92204912     0.13100
H2035       H  0.39357025  0.58738711  0.90489271     0.13000
H2036       H  0.38883374  0.61716148  0.86839608     0.12000
C2037       C  0.17898628  0.74040966  0.08797025     0.18300
C2038       C  0.18420749  0.71774223  0.10143919    -0.10800
C2039       C  0.20209115  0.71779710  0.12144796    -0.11600
C2040       C  0.21484373  0.74052182  0.12803204     0.19900
C2041       C  0.20918537  0.76327944  0.11493917    -0.13700
C2042       C  0.19132477  0.76322380  0.09495129    -0.12000
C2043       C  0.23420451  0.74047836  0.14771076     0.00900
C2044       C  0.25054940  0.74094147  0.16405614    -0.32000
C2045       C  0.16213524  0.74000882  0.06610265     0.02200
C2046       C  0.14930776  0.73957313  0.04686993    -0.33600
H2047       H  0.17483345  0.69997286  0.09616253     0.13300
H2048       H  0.20627170  0.70008845  0.13147246     0.13100
H2049       H  0.21889087  0.78096172  0.11990052     0.13000
H2050       H  0.18750337  0.78084555  0.08463647     0.12000
C2051       C  0.18019774  0.74158964  0.91380498     0.18300
C2052       C  0.17977572  0.72169702  0.89577000    -0.10800
C2053       C  0.19718271  0.72171600  0.87539425    -0.11600
C2054       C  0.21507171  0.74160685  0.87302031     0.19900
C2055       C  0.21531548  0.76163576  0.89089818    -0.13700
C2056       C  0.19791271  0.76161732  0.91126769    -0.12000
C2057       C  0.23355217  0.74113248  0.85261348     0.00900
C2058       C  0.24924238  0.74038262  0.83570682    -0.32000
C2059       C  0.16320244  0.74097699  0.93547623     0.02200
C2060       C  0.15007652  0.74027859  0.95445457    -0.33600
H2061       H  0.16622613  0.70606413  0.89763073     0.13300
H2062       H  0.19688326  0.70612077  0.86167711     0.13100
H2063       H  0.22910819  0.77708005  0.88924448     0.13000
H2064       H  0.19846294  0.77702614  0.92518545     0.12000
loop_ 
_geom_bond_atom_site_label_1 
_geom_bond_atom_site_label_2 
_geom_bond_distance 
_geom_bond_site_symmetry_2 
_ccdc_geom_bond_type 
C1            N2   1.356   1_556  A
C1            N6   1.357       .  A
C1         C2060   1.433       .  S
N2            C3   1.355       .  A
C3            N4   1.357       .  A
C3         C2046   1.436       .  S
N4            C5   1.361       .  A
C5            N6   1.360   1_554  A
C5           C51   1.470   1_554  S
C7            N8   1.355       .  A
C7           N12   1.357       .  A
C7         C2018   1.435       .  S
N8            C9   1.355   1_554  A
C9           N10   1.358       .  A
C9         C2030   1.439       .  S
N10          C11   1.362   1_556  A
C11          N12   1.361       .  A
C11          C69   1.472       .  S
C13          N14   1.357       .  A
C13          N18   1.355   1_554  A
C13        C1990   1.434       .  S
N14          C15   1.360   1_554  A
C15          N16   1.356       .  A
C15          C65   1.463       .  S
N16          C17   1.353       .  A
C17          N18   1.355       .  A
C17        C2002   1.426       .  S
C19          N20   1.356       .  A
C19          N24   1.357       .  A
C19        C1976   1.435       .  S
N20          C21   1.356   1_556  A
C21          N22   1.357       .  A
C21        C1960   1.435       .  S
N22          C23   1.360   1_554  A
C23          N24   1.360       .  A
C23          C57   1.468       .  S
C25          N26   1.357       .  A
C25          N30   1.355   1_545  A
C25        C1932   1.432       .  S
N26          C27   1.360   1_545  A
C27          N28   1.358       .  A
C27          C75   1.466   1_554  S
N28          C29   1.355       .  A
C29          N30   1.354       .  A
C29        C1948   1.430       .  S
C31          N32   1.355   1_545  A
C31          N36   1.358       .  A
C31        C1904   1.433       .  S
N32          C33   1.354       .  A
C33          N34   1.355       .  A
C33        C1918   1.434       .  S
N34          C35   1.360       .  A
C35          N36   1.360   1_565  A
C35          C93   1.468       .  S
C37          N38   1.357       .  A
C37          N42   1.355       .  A
C37        C1890   1.433       .  S
N38          C39   1.360       .  A
C39          N40   1.360   1_565  A
C39          C87   1.469   1_556  S
N40          C41   1.356       .  A
C41          N42   1.355   1_545  A
C41        C1876   1.433       .  S
C43          N44   1.355       .  A
C43          N48   1.357       .  A
C43        C1862   1.434       .  S
N44          C45   1.355   1_565  A
C45          N46   1.358       .  A
C45        C1848   1.434       .  S
N46          C47   1.360   1_545  A
C47          N48   1.361       .  A
C47          C81   1.472       .  S
C49          N50   1.356       .  A
C49          N54   1.354   1_554  A
C49        C1822   1.432       .  S
N50          C51   1.360   1_554  A
C51          N52   1.361       .  A
N52          C53   1.358       .  A
C53          N54   1.354       .  A
C53        C1834   1.435       .  S
C55          N56   1.356       .  A
C55          N60   1.355   1_554  A
C55        C1792   1.432       .  S
N56          C57   1.359   1_554  A
C57          N58   1.359       .  A
N58          C59   1.356       .  A
C59          N60   1.355       .  A
C59        C1806   1.431       .  S
C61          N62   1.353   1_556  A
C61          N66   1.357       .  A
C61        C1780   1.432       .  S
N62          C63   1.353       .  A
C63          N64   1.353       .  A
C63        C1764   1.425       .  S
N64          C65   1.357   1_554  A
C65          N66   1.361       .  A
C67          N68   1.357       .  A
C67          N72   1.353   1_556  A
C67        C1750   1.433       .  S
N68          C69   1.361   1_556  A
C69          N70   1.362       .  A
N70          C71   1.358       .  A
C71          N72   1.353       .  A
C71        C1736   1.432       .  S
C73          N74   1.356       .  A
C73          N78   1.355   1_545  A
C73        C1710   1.433       .  S
N74          C75   1.359   1_545  A
C75          N76   1.360       .  A
N76          C77   1.356       .  A
C77          N78   1.355       .  A
C77        C1722   1.433       .  S
C79          N80   1.359       .  A
C79          N84   1.356   1_545  A
C79        C1680   1.439       .  S
N80          C81   1.362   1_545  A
C81          N82   1.360       .  A
N82          C83   1.356       .  A
C83          N84   1.355       .  A
C83        C1694   1.435       .  S
C85          N86   1.356       .  A
C85          N90   1.354   1_545  A
C85        C1652   1.433       .  S
N86          C87   1.360   1_545  A
C87          N88   1.360       .  A
N88          C89   1.357       .  A
C89          N90   1.354       .  A
C89        C1666   1.433       .  S
C91          N92   1.354       .  A
C91          N96   1.353       .  A
C91        C1638   1.429       .  S
N92          C93   1.359       .  A
C93          N94   1.361   1_565  A
N94          C95   1.358       .  A
C95          N96   1.354   1_545  A
C95        C1624   1.431       .  S
C97          N98   1.354       .  A
C97         N102   1.354       .  A
C97        C1610   1.430       .  S
N98          C99   1.358       .  A
C99         N100   1.360       .  A
C99         C113   1.466   1_545  S
N100        C101   1.357       .  A
C101        N102   1.355       .  A
C101       C1596   1.431       .  S
C103        N104   1.354       .  A
C103        N108   1.355       .  A
C103       C1582   1.432       .  S
N104        C105   1.355       .  A
C105        N106   1.359       .  A
C105       C1568   1.437       .  S
N106        C107   1.362       .  A
C107        N108   1.359       .  A
C107        C143   1.470       .  S
C109        N110   1.354       .  A
C109        N114   1.357       .  A
C109       C1540   1.432       .  S
N110        C111   1.354       .  A
C111        N112   1.355       .  A
C111       C1556   1.431       .  S
N112        C113   1.359       .  A
C113        N114   1.360       .  A
C115        N116   1.355       .  A
C115        N120   1.357       .  A
C115       C1526   1.435       .  S
N116        C117   1.355       .  A
C117        N118   1.358       .  A
C117       C1512   1.437       .  S
N118        C119   1.362       .  A
C119        N120   1.361       .  A
C119        C131   1.473       .  S
C121        N122   1.355       .  A
C121        N126   1.355       .  A
C121       C1500   1.433       .  S
N122        C123   1.359       .  A
C123        N124   1.360       .  A
C123        C135   1.468   1_565  S
N124        C125   1.358       .  A
C125        N126   1.356       .  A
C125       C1486   1.434       .  S
C127        N128   1.355       .  A
C127        N132   1.357       .  A
C127       C1472   1.434       .  S
N128        C129   1.355       .  A
C129        N130   1.359       .  A
C129       C1458   1.437       .  S
N130        C131   1.362       .  A
C131        N132   1.360       .  A
C133        N134   1.358       .  A
C133        N138   1.354       .  A
C133       C1444   1.433       .  S
N134        C135   1.360       .  A
C135        N136   1.360       .  A
N136        C137   1.355       .  A
C137        N138   1.354       .  A
C137       C1428   1.431       .  S
C139        N140   1.354       .  A
C139        N144   1.356       .  A
C139       C1402   1.430       .  S
N140        C141   1.354       .  A
C141        N142   1.358       .  A
C141       C1414   1.436       .  S
N142        C143   1.362       .  A
C143        N144   1.359       .  A
C145        N146   1.357       .  A
C145        N150   1.355       .  A
C145       C1372   1.437       .  S
N146        C147   1.361       .  A
C147        N148   1.359       .  A
C147        C291   1.466       .  S
N148        C149   1.355       .  A
C149        N150   1.355       .  A
C149       C1388   1.432       .  S
C151        N152   1.356       .  A
C151        N156   1.358       .  A
C151       C1358   1.433       .  S
N152        C153   1.355       .  A
C153        N154   1.356       .  A
C153       C1344   1.437       .  S
N154        C155   1.360       .  A
C155        N156   1.359       .  A
C155        C363   1.469       .  S
O157       Zr193   2.445       .  S
O157        C168   1.292       .  A
O158       Zr192   2.435       .  S
O158        C169   1.290       .  A
O159       Zr165   2.436       .  S
O159        C170   1.290       .  A
O160       Zr165   2.442       .  S
O160        C171   1.291       .  A
O161       Zr195   2.436       .  S
O161        C171   1.290       .  A
O162       Zr194   2.445       .  S
O162        C170   1.292       .  A
O163       Zr165   2.443       .  S
O163        C169   1.291       .  A
O164       Zr165   2.434       .  S
O164        C168   1.289       .  A
Zr165       O166   2.338       .  S
Zr165       O167   2.338       .  S
Zr165       O175   2.344       .  S
Zr165       O173   2.345       .  S
O166       Zr192   2.342       .  S
O166       Zr195   2.342       .  S
O167       Zr193   2.334       .  S
O167       Zr194   2.335       .  S
C168       C2044   1.435       .  S
C169       C1470   1.434       .  S
C170       C1346   1.437       .  S
C171       C1498   1.433       .  S
H172        O173   0.965       .  S
O173       Zr192   2.344       .  S
O173       Zr194   2.343       .  S
H174        O175   0.965       .  S
O175       Zr193   2.345       .  S
O175       Zr195   2.347       .  S
O176       Zr192   2.434       .  S
O176        C199   1.290       .  A
O177       Zr193   2.440       .  S
O177        C200   1.291       .  A
O178       Zr194   2.440       .  S
O178        C201   1.291       .  A
O179       Zr195   2.444       .  S
O179        C202   1.292       .  A
O180       Zr195   2.445       .  S
O180        C203   1.292       .  A
O181       Zr194   2.434       .  S
O181        C204   1.290       .  A
O182       Zr196   2.436       .  S
O182        C205   1.290       .  A
O183       Zr196   2.428       .  S
O183        C206   1.288       .  A
O184       Zr194   2.435       .  S
O184        C205   1.290       .  A
O185       Zr195   2.442       .  S
O185        C206   1.291       .  A
O186       Zr192   2.448       .  S
O186        C201   1.292       .  A
O187       Zr193   2.444       .  S
O187        C204   1.292       .  A
O188       Zr193   2.432       .  S
O188        C203   1.289       .  A
O189       Zr192   2.448       .  S
O189        C202   1.292       .  A
O190       Zr196   2.435       .  S
O190        C199   1.290       .  A
O191       Zr196   2.446       .  S
O191        C200   1.292       .  A
Zr192       O198   2.341       .  S
Zr192       O210   2.344       .  S
Zr193       O197   2.339       .  S
Zr193       O208   2.342       .  S
Zr194       O198   2.339       .  S
Zr194       O208   2.348       .  S
Zr195       O197   2.337       .  S
Zr195       O210   2.342       .  S
Zr196       O197   2.335       .  S
Zr196       O198   2.339       .  S
Zr196       O210   2.346       .  S
Zr196       O208   2.342       .  S
C199       C1316   1.430       .  S
C200       C1302   1.438       .  S
C201       C1374   1.439       .  S
C202       C1330   1.440       .  S
C203       C1668   1.433       .  S
C204       C2016   1.434       .  S
C205       C1288   1.430       .  S
C206       C1640   1.429       .  S
H207        O208   0.965       .  S
H209        O210   0.965       .  S
C211        N212   1.355       .  A
C211        N216   1.357       .  A
C211       C1274   1.436       .  S
N212        C213   1.355       .  A
C213        N214   1.357       .  A
C213       C1260   1.433       .  S
N214        C215   1.360       .  A
C215        N216   1.361       .  A
C215        C603   1.471       .  S
C217        N218   1.356       .  A
C217        N222   1.355       .  A
C217       C1246   1.434       .  S
N218        C219   1.360       .  A
C219        N220   1.360       .  A
C219        C285   1.471   1_545  S
N220        C221   1.358       .  A
C221        N222   1.355       .  A
C221       C1234   1.433       .  S
O223       Zr259   2.432       .  S
O223        C234   1.289       .  A
O224       Zr258   2.431       .  S
O224        C235   1.289       .  A
O225       Zr231   2.427       .  S
O225        C236   1.288       .  A
O226       Zr231   2.431       .  S
O226        C237   1.289       .  A
O227       Zr261   2.439       .  S
O227        C237   1.291       .  A
O228       Zr260   2.441       .  S
O228        C236   1.291       .  A
O229       Zr231   2.443       .  S
O229        C235   1.291       .  A
O230       Zr231   2.442       .  S
O230        C234   1.291       .  A
Zr231       O232   2.336       .  S
Zr231       O233   2.338       .  S
Zr231       O241   2.340       .  S
Zr231       O239   2.343       .  S
O232       Zr258   2.339       .  S
O232       Zr261   2.341       .  S
O233       Zr259   2.338       .  S
O233       Zr260   2.337       .  S
C234       C1878   1.432       .  S
C235       C1752   1.432       .  S
C236       C1190   1.429       .  S
C237       C1778   1.431       .  S
H238        O239   0.965       .  S
O239       Zr258   2.342       .  S
O239       Zr260   2.342       .  S
H240        O241   0.965       .  S
O241       Zr259   2.340       .  S
O241       Zr261   2.338       .  S
O242       Zr258   2.434       .  S
O242        C265   1.290       .  A
O243       Zr259   2.439       .  S
O243        C266   1.290       .  A
O244       Zr260   2.442       .  S
O244        C267   1.291       .  A
O245       Zr261   2.430       .  S
O245        C268   1.289       .  A
O246       Zr261   2.437       .  S
O246        C269   1.290       .  A
O247       Zr260   2.444       .  S
O247        C270   1.292       .  A
O248       Zr262   2.431       .  S
O248        C271   1.289       .  A
O249       Zr262   2.436       .  S
O249        C272   1.290       .  A
O250       Zr260   2.439       .  S
O250        C271   1.291       .  A
O251       Zr261   2.443       .  S
O251        C272   1.291       .  A
O252       Zr258   2.439       .  S
O252        C267   1.291       .  A
O253       Zr259   2.432       .  S
O253        C270   1.289       .  A
O254       Zr259   2.431       .  S
O254        C269   1.289       .  A
O255       Zr258   2.441       .  S
O255        C268   1.291       .  A
O256       Zr262   2.428       .  S
O256        C265   1.288       .  A
O257       Zr262   2.429       .  S
O257        C266   1.289       .  A
Zr258       O264   2.338       .  S
Zr258       O276   2.338       .  S
Zr259       O263   2.339       .  S
Zr259       O274   2.340       .  S
Zr260       O264   2.340       .  S
Zr260       O274   2.344       .  S
Zr261       O263   2.339       .  S
Zr261       O276   2.340       .  S
Zr262       O263   2.338       .  S
Zr262       O264   2.337       .  S
Zr262       O276   2.339       .  S
Zr262       O274   2.343       .  S
C265       C1204   1.427       .  S
C266       C1232   1.430       .  S
C267       C1178   1.435       .  S
C268       C1218   1.431       .  S
C269       C1598   1.430       .  S
C270       C1850   1.433       .  S
C271       C1262   1.431       .  S
C272       C1570   1.435       .  S
H273        O274   0.965       .  S
H275        O276   0.965       .  S
C277        N278   1.353       .  A
C277        N282   1.356       .  A
C277       C1318   1.430       .  S
N278        C279   1.353       .  A
C279        N280   1.356       .  A
C279       C1162   1.430       .  S
N280        C281   1.360       .  A
C281        N282   1.360       .  A
C281        C435   1.466       .  S
C283        N284   1.359       .  A
C283        N288   1.355       .  A
C283       C1150   1.436       .  S
N284        C285   1.362       .  A
C285        N286   1.361       .  A
N286        C287   1.357       .  A
C287        N288   1.354       .  A
C287       C1332   1.436       .  S
C289        N290   1.356       .  A
C289        N294   1.353       .  A
C289       C1206   1.429       .  S
N290        C291   1.360       .  A
C291        N292   1.359       .  A
N292        C293   1.355       .  A
C293        N294   1.353       .  A
C293       C1134   1.427       .  S
C295        N296   1.357       .  A
C295        N300   1.354       .  A
C295       C1220   1.432       .  S
N296        C297   1.360       .  A
C297        N298   1.360       .  A
C297        C465   1.469       .  S
N298        C299   1.357       .  A
C299        N300   1.354       .  A
C299       C1120   1.431       .  S
O301       Zr337   2.441       .  S
O301        C312   1.291       .  A
O302       Zr336   2.439       .  S
O302        C313   1.290       .  A
O303       Zr309   2.441       .  S
O303        C314   1.291       .  A
O304       Zr309   2.437       .  S
O304        C315   1.290       .  A
O305       Zr339   2.433       .  S
O305        C315   1.290       .  A
O306       Zr338   2.430       .  S
O306        C314   1.289       .  A
O307       Zr309   2.444       .  S
O307        C313   1.291       .  A
O308       Zr309   2.432       .  S
O308        C312   1.289       .  A
Zr309       O310   2.336       .  S
Zr309       O311   2.338       .  S
Zr309       O319   2.350       .  S
Zr309       O317   2.340       .  S
O310       Zr336   2.339       .  S
O310       Zr339   2.342       .  S
O311       Zr337   2.337       .  S
O311       Zr338   2.339       .  S
C312       C2058   1.432       .  S
C313       C1514   1.437       .  S
C314       C1542   1.431       .  S
C315       C1122   1.430       .  S
H316        O317   0.965       .  S
O317       Zr336   2.339       .  S
O317       Zr338   2.344       .  S
H318        O319   0.965       .  S
O319       Zr337   2.340       .  S
O319       Zr339   2.342       .  S
O320       Zr336   2.438       .  S
O320        C343   1.290       .  A
O321       Zr337   2.432       .  S
O321        C344   1.289       .  A
O322       Zr338   2.439       .  S
O322        C345   1.291       .  A
O323       Zr339   2.433       .  S
O323        C346   1.290       .  A
O324       Zr339   2.445       .  S
O324        C347   1.291       .  A
O325       Zr338   2.440       .  S
O325        C348   1.291       .  A
O326       Zr340   2.435       .  S
O326        C349   1.290       .  A
O327       Zr340   2.437       .  S
O327        C350   1.290       .  A
O328       Zr338   2.440       .  S
O328        C349   1.291       .  A
O329       Zr339   2.434       .  S
O329        C350   1.290       .  A
O330       Zr336   2.438       .  S
O330        C345   1.290       .  A
O331       Zr337   2.431       .  S
O331        C348   1.289       .  A
O332       Zr337   2.444       .  S
O332        C347   1.291       .  A
O333       Zr336   2.430       .  S
O333        C346   1.289       .  A
O334       Zr340   2.434       .  S
O334        C343   1.290       .  A
O335       Zr340   2.440       .  S
O335        C344   1.291       .  A
Zr336       O342   2.338       .  S
Zr336       O354   2.343       .  S
Zr337       O341   2.337       .  S
Zr337       O352   2.346       .  S
Zr338       O342   2.337       .  S
Zr338       O352   2.339       .  S
Zr339       O341   2.335       .  S
Zr339       O354   2.343       .  S
Zr340       O341   2.339       .  S
Zr340       O342   2.340       .  S
Zr340       O354   2.339       .  S
Zr340       O352   2.340       .  S
C343       C1164   1.431       .  S
C344       C1108   1.431       .  S
C345       C1148   1.434       .  S
C346       C1136   1.426       .  S
C347       C2032   1.440       .  S
C348       C1892   1.431       .  S
C349       C1864   1.433       .  S
C350       C1094   1.431       .  S
H351        O352   0.965       .  S
H353        O354   0.965       .  S
C355        N356   1.355       .  A
C355        N360   1.355       .  A
C355       C1064   1.433       .  S
N356        C357   1.359       .  A
C357        N358   1.359       .  A
C357        C461   1.465       .  S
N358        C359   1.356       .  A
C359        N360   1.356       .  A
C359       C1078   1.431       .  S
C361        N362   1.354       .  A
C361        N366   1.354       .  A
C361       C1038   1.431       .  S
N362        C363   1.359       .  A
C363        N364   1.362       .  A
N364        C365   1.359       .  A
C365        N366   1.355       .  A
C365       C1052   1.436       .  S
C367        N368   1.355       .  A
C367        N372   1.355       .  A
C367       C1022   1.432       .  S
N368        C369   1.359       .  A
C369        N370   1.358       .  A
C369        C525   1.464       .  S
N370        C371   1.355       .  A
C371        N372   1.355       .  A
C371       C1290   1.430       .  S
C373        N374   1.354       .  A
C373        N378   1.356       .  A
C373       C1008   1.431       .  S
N374        C375   1.354       .  A
C375        N376   1.360       .  A
C375       C1304   1.438       .  S
N376        C377   1.364       .  A
C377        N378   1.359       .  A
C377        C455   1.472   1_554  S
O379       Zr415   2.441       .  S
O379        C390   1.291       .  A
O380       Zr414   2.435       .  S
O380        C391   1.290       .  A
O381       Zr387   2.440       .  S
O381        C392   1.291       .  A
O382       Zr387   2.435       .  S
O382        C393   1.290       .  A
O383       Zr417   2.437       .  S
O383        C393   1.290       .  A
O384       Zr416   2.432       .  S
O384        C392   1.289       .  A
O385       Zr387   2.433       .  S
O385        C391   1.290       .  A
O386       Zr387   2.430       .  S
O386        C390   1.289       .  A
Zr387       O388   2.336       .  S
Zr387       O389   2.341       .  S
Zr387       O397   2.343       .  S
Zr387       O395   2.338       .  S
O388       Zr414   2.339       .  S
O388       Zr417   2.336       .  S
O389       Zr415   2.344       .  S
O389       Zr416   2.342       .  S
C390       C1946   1.430       .  S
C391       C1794   1.430       .  S
C392       C1820   1.431       .  S
C393       C1010   1.431       .  S
H394        O395   0.965       .  S
O395       Zr414   2.340       .  S
O395       Zr416   2.342       .  S
H396        O397   0.965       .  S
O397       Zr415   2.341       .  S
O397       Zr417   2.342       .  S
O398       Zr414   2.441       .  S
O398        C421   1.291       .  A
O399       Zr415   2.442       .  S
O399        C422   1.291       .  A
O400       Zr416   2.432       .  S
O400        C423   1.289       .  A
O401       Zr417   2.439       .  S
O401        C424   1.291       .  A
O402       Zr417   2.439       .  S
O402        C425   1.291       .  A
O403       Zr416   2.436       .  S
O403        C426   1.290       .  A
O404       Zr418   2.437       .  S
O404        C427   1.290       .  A
O405       Zr418   2.427       .  S
O405        C428   1.288       .  A
O406       Zr416   2.437       .  S
O406        C427   1.290       .  A
O407       Zr417   2.435       .  S
O407        C428   1.290       .  A
O408       Zr414   2.441       .  S
O408        C423   1.291       .  A
O409       Zr415   2.437       .  S
O409        C426   1.290       .  A
O410       Zr415   2.442       .  S
O410        C425   1.291       .  A
O411       Zr414   2.436       .  S
O411        C424   1.290       .  A
O412       Zr418   2.434       .  S
O412        C421   1.290       .  A
O413       Zr418   2.436       .  S
O413        C422   1.290       .  A
Zr414       O420   2.340       .  S
Zr414       O432   2.341       .  S
Zr415       O419   2.338       .  S
Zr415       O430   2.341       .  S
Zr416       O420   2.340       .  S
Zr416       O430   2.338       .  S
Zr417       O419   2.338       .  S
Zr417       O432   2.343       .  S
Zr418       O419   2.339       .  S
Zr418       O420   2.338       .  S
Zr418       O432   2.342       .  S
Zr418       O430   2.335       .  S
C421       C1066   1.433       .  S
C422        C994   1.434       .  S
C423       C1036   1.431       .  S
C424       C1024   1.432       .  S
C425       C1920   1.435       .  S
C426       C1484   1.432       .  S
C427       C1456   1.433       .  S
C428        C980   1.426       .  S
H429        O430   0.965       .  S
H431        O432   0.965       .  S
C433        N434   1.356       .  A
C433        N438   1.354       .  A
C433        C966   1.433       .  S
N434        C435   1.359       .  A
C435        N436   1.359       .  A
N436        C437   1.356       .  A
C437        N438   1.355       .  A
C437        C982   1.429       .  S
C439        N440   1.356       .  A
C439        N444   1.356       .  A
C439        C954   1.434       .  S
N440        C441   1.359       .  A
C441        N442   1.360       .  A
C441        C609   1.469   1_565  S
N442        C443   1.357       .  A
C443        N444   1.356       .  A
C443        C996   1.434       .  S
C445        N446   1.354       .  A
C445        N450   1.356       .  A
C445        C938   1.429       .  S
N446        C447   1.354       .  A
C447        N448   1.357       .  A
C447       C1092   1.433       .  S
N448        C449   1.361       .  A
C449        N450   1.359       .  A
C449        C591   1.469       .  S
C451        N452   1.356       .  A
C451        N456   1.356       .  A
C451       C1106   1.432       .  S
N452        C453   1.356       .  A
C453        N454   1.359       .  A
C453        C924   1.439       .  S
N454        C455   1.362       .  A
C455        N456   1.359       .  A
C457        N458   1.354       .  A
C457        N462   1.353       .  A
C457        C910   1.428       .  S
N458        C459   1.354       .  A
C459        N460   1.358       .  A
C459        C896   1.431       .  S
N460        C461   1.360       .  A
C461        N462   1.357       .  A
C463        N464   1.357       .  A
C463        N468   1.356       .  A
C463        C884   1.434       .  S
N464        C465   1.360       .  A
C465        N466   1.359       .  A
N466        C467   1.356       .  A
C467        N468   1.355       .  A
C467        C870   1.434       .  S
O469       Zr505   2.438       .  S
O469        C480   1.291       .  A
O470       Zr504   2.435       .  S
O470        C481   1.290       .  A
O471       Zr477   2.433       .  S
O471        C482   1.289       .  A
O472       Zr477   2.436       .  S
O472        C483   1.290       .  A
O473       Zr507   2.433       .  S
O473        C483   1.290       .  A
O474       Zr506   2.445       .  S
O474        C482   1.292       .  A
O475       Zr477   2.447       .  S
O475        C481   1.292       .  A
O476       Zr477   2.437       .  S
O476        C480   1.290       .  A
Zr477       O478   2.340       .  S
Zr477       O479   2.341       .  S
Zr477       O487   2.344       .  S
Zr477       O485   2.338       .  S
O478       Zr504   2.342       .  S
O478       Zr507   2.344       .  S
O479       Zr505   2.338       .  S
O479       Zr506   2.337       .  S
C480       C1836   1.433       .  S
C481       C1528   1.435       .  S
C482        C882   1.434       .  S
C483       C1554   1.429       .  S
H484        O485   0.965       .  S
O485       Zr504   2.339       .  S
O485       Zr506   2.338       .  S
H486        O487   0.965       .  S
O487       Zr505   2.340       .  S
O487       Zr507   2.343       .  S
O488       Zr504   2.440       .  S
O488        C511   1.291       .  A
O489       Zr505   2.435       .  S
O489        C512   1.290       .  A
O490       Zr506   2.431       .  S
O490        C513   1.289       .  A
O491       Zr507   2.433       .  S
O491        C514   1.290       .  A
O492       Zr507   2.438       .  S
O492        C515   1.291       .  A
O493       Zr506   2.431       .  S
O493        C516   1.289       .  A
O494       Zr508   2.430       .  S
O494        C517   1.289       .  A
O495       Zr508   2.432       .  S
O495        C518   1.289       .  A
O496       Zr506   2.436       .  S
O496        C517   1.290       .  A
O497       Zr507   2.446       .  S
O497        C518   1.292       .  A
O498       Zr504   2.438       .  S
O498        C513   1.290       .  A
O499       Zr505   2.438       .  S
O499        C516   1.290       .  A
O500       Zr505   2.433       .  S
O500        C515   1.289       .  A
O501       Zr504   2.440       .  S
O501        C514   1.291       .  A
O502       Zr508   2.438       .  S
O502        C511   1.290       .  A
O503       Zr508   2.446       .  S
O503        C512   1.292       .  A
Zr504       O510   2.341       .  S
Zr504       O522   2.338       .  S
Zr505       O509   2.339       .  S
Zr505       O520   2.341       .  S
Zr506       O510   2.342       .  S
Zr506       O520   2.345       .  S
Zr507       O509   2.334       .  S
Zr507       O522   2.339       .  S
Zr508       O509   2.335       .  S
Zr508       O510   2.342       .  S
Zr508       O522   2.340       .  S
Zr508       O520   2.344       .  S
C511        C968   1.433       .  S
C512        C926   1.437       .  S
C513        C912   1.429       .  S
C514        C952   1.433       .  S
C515       C1724   1.432       .  S
C516       C1808   1.430       .  S
C517        C940   1.428       .  S
C518       C1696   1.434       .  S
H519        O520   0.965       .  S
H521        O522   0.965       .  S
C523        N524   1.356       .  A
C523        N528   1.354       .  A
C523        C840   1.431       .  S
N524        C525   1.359       .  A
C525        N526   1.358       .  A
N526        C527   1.354       .  A
C527        N528   1.354       .  A
C527        C854   1.427       .  S
C529        N530   1.357       .  A
C529        N534   1.355       .  A
C529        C826   1.432       .  S
N530        C531   1.359       .  A
C531        N532   1.361       .  A
C531        C597   1.469   1_554  S
N532        C533   1.356       .  A
C533        N534   1.355       .  A
C533        C814   1.436       .  S
O535       Zr571   2.436       .  S
O535        C546   1.290       .  A
O536       Zr570   2.444       .  S
O536        C547   1.292       .  A
O537       Zr543   2.443       .  S
O537        C548   1.291       .  A
O538       Zr543   2.442       .  S
O538        C549   1.291       .  A
O539       Zr573   2.435       .  S
O539        C549   1.290       .  A
O540       Zr572   2.433       .  S
O540        C548   1.290       .  A
O541       Zr543   2.440       .  S
O541        C547   1.291       .  A
O542       Zr543   2.440       .  S
O542        C546   1.291       .  A
Zr543       O544   2.339       .  S
Zr543       O545   2.341       .  S
Zr543       O553   2.344       .  S
Zr543       O551   2.343       .  S
O544       Zr570   2.339       .  S
O544       Zr573   2.338       .  S
O545       Zr571   2.338       .  S
O545       Zr572   2.339       .  S
C546       C1988   1.433       .  S
C547       C1416   1.436       .  S
C548       C1050   1.434       .  S
C549       C1442   1.434       .  S
H550        O551   0.965       .  S
O551       Zr570   2.347       .  S
O551       Zr572   2.341       .  S
H552        O553   0.965       .  S
O553       Zr571   2.344       .  S
O553       Zr573   2.342       .  S
O554       Zr570   2.450       .  S
O554        C577   1.293       .  A
O555       Zr571   2.433       .  S
O555        C578   1.289       .  A
O556       Zr572   2.439       .  S
O556        C579   1.291       .  A
O557       Zr573   2.435       .  S
O557        C580   1.290       .  A
O558       Zr573   2.439       .  S
O558        C581   1.291       .  A
O559       Zr572   2.440       .  S
O559        C582   1.291       .  A
O560       Zr574   2.431       .  S
O560        C583   1.289       .  A
O561       Zr574   2.436       .  S
O561        C584   1.290       .  A
O562       Zr572   2.430       .  S
O562        C583   1.289       .  A
O563       Zr573   2.436       .  S
O563        C584   1.290       .  A
O564       Zr570   2.434       .  S
O564        C579   1.290       .  A
O565       Zr571   2.445       .  S
O565        C582   1.292       .  A
O566       Zr571   2.436       .  S
O566        C581   1.290       .  A
O567       Zr570   2.442       .  S
O567        C580   1.292       .  A
O568       Zr574   2.427       .  S
O568        C577   1.288       .  A
O569       Zr574   2.436       .  S
O569        C578   1.290       .  A
Zr570       O576   2.339       .  S
Zr570       O588   2.342       .  S
Zr571       O575   2.341       .  S
Zr571       O586   2.339       .  S
Zr572       O576   2.338       .  S
Zr572       O586   2.341       .  S
Zr573       O575   2.339       .  S
Zr573       O588   2.342       .  S
Zr574       O575   2.336       .  S
Zr574       O576   2.339       .  S
Zr574       O588   2.342       .  S
Zr574       O586   2.339       .  S
C577        C784   1.434       .  S
C578        C828   1.430       .  S
C579       C1080   1.431       .  S
C580        C798   1.434       .  S
C581       C1934   1.433       .  S
C582       C1962   1.437       .  S
C583        C856   1.426       .  S
C584       C1906   1.431       .  S
H585        O586   0.965       .  S
H587        O588   0.965       .  S
C589        N590   1.356       .  A
C589        N594   1.355       .  A
C589       C1176   1.434       .  S
N590        C591   1.359       .  A
C591        N592   1.361       .  A
N592        C593   1.357       .  A
C593        N594   1.356       .  A
C593        C770   1.435       .  S
C595        N596   1.353       .  A
C595        N600   1.354       .  A
C595       C1192   1.430       .  S
N596        C597   1.358       .  A
C597        N598   1.362       .  A
N598        C599   1.360       .  A
C599        N600   1.355       .  A
C599        C756   1.436       .  S
C601        N602   1.359       .  A
C601        N606   1.356       .  A
C601        C742   1.439       .  S
N602        C603   1.362       .  A
C603        N604   1.359       .  A
N604        C605   1.356       .  A
C605        N606   1.355       .  A
C605        C786   1.434       .  S
C607        N608   1.357       .  A
C607        N612   1.355       .  A
C607        C800   1.434       .  S
N608        C609   1.360       .  A
C609        N610   1.360       .  A
N610        C611   1.357       .  A
C611        N612   1.355       .  A
C611        C728   1.434       .  S
O613       Zr649   2.438       .  S
O613        C624   1.290       .  A
O614       Zr648   2.436       .  S
O614        C625   1.290       .  A
O615       Zr621   2.439       .  S
O615        C626   1.291       .  A
O616       Zr621   2.432       .  S
O616        C627   1.289       .  A
O617       Zr651   2.448       .  S
O617        C627   1.292       .  A
O618       Zr650   2.428       .  S
O618        C626   1.288       .  A
O619       Zr621   2.434       .  S
O619        C625   1.289       .  A
O620       Zr621   2.427       .  S
O620        C624   1.288       .  A
Zr621       O622   2.336       .  S
Zr621       O623   2.340       .  S
Zr621       O631   2.342       .  S
Zr621       O629   2.336       .  S
O622       Zr648   2.338       .  S
O622       Zr651   2.335       .  S
O623       Zr649   2.344       .  S
O623       Zr650   2.344       .  S
C624       C2004   1.426       .  S
C625       C1584   1.431       .  S
C626       C1612   1.428       .  S
C627        C868   1.435       .  S
H628        O629   0.965       .  S
O629       Zr648   2.341       .  S
O629       Zr650   2.345       .  S
H630        O631   0.965       .  S
O631       Zr649   2.339       .  S
O631       Zr651   2.337       .  S
O632       Zr648   2.442       .  S
O632        C655   1.291       .  A
O633       Zr649   2.436       .  S
O633        C656   1.290       .  A
O634       Zr650   2.446       .  S
O634        C657   1.292       .  A
O635       Zr651   2.431       .  S
O635        C658   1.289       .  A
O636       Zr651   2.438       .  S
O636        C659   1.290       .  A
O637       Zr650   2.447       .  S
O637        C660   1.292       .  A
O638       Zr652   2.443       .  S
O638        C661   1.291       .  A
O639       Zr652   2.438       .  S
O639        C662   1.291       .  A
O640       Zr650   2.444       .  S
O640        C661   1.292       .  A
O641       Zr651   2.435       .  S
O641        C662   1.290       .  A
O642       Zr648   2.432       .  S
O642        C657   1.290       .  A
O643       Zr649   2.436       .  S
O643        C660   1.290       .  A
O644       Zr649   2.444       .  S
O644        C659   1.291       .  A
O645       Zr648   2.435       .  S
O645        C658   1.290       .  A
O646       Zr652   2.443       .  S
O646        C655   1.291       .  A
O647       Zr652   2.442       .  S
O647        C656   1.291       .  A
Zr648       O654   2.340       .  S
Zr648       O666   2.340       .  S
Zr649       O653   2.337       .  S
Zr649       O664   2.347       .  S
Zr650       O654   2.338       .  S
Zr650       O664   2.342       .  S
Zr651       O653   2.340       .  S
Zr651       O666   2.348       .  S
Zr652       O653   2.342       .  S
Zr652       O654   2.337       .  S
Zr652       O666   2.347       .  S
Zr652       O664   2.343       .  S
C655        C744   1.439       .  S
C656        C758   1.434       .  S
C657        C730   1.434       .  S
C658        C898   1.429       .  S
C659       C1974   1.436       .  S
C660       C1708   1.436       .  S
C661       C1682   1.439       .  S
C662        C772   1.432       .  S
H663        O664   0.965       .  S
H665        O666   0.965       .  S
O667       Zr703   2.438       .  S
O667        C678   1.290       .  A
O668       Zr702   2.440       .  S
O668        C679   1.291       .  A
O669       Zr675   2.434       .  S
O669        C680   1.290       .  A
O670       Zr675   2.435       .  S
O670        C681   1.290       .  A
O671       Zr705   2.439       .  S
O671        C681   1.291       .  A
O672       Zr704   2.427       .  S
O672        C680   1.288       .  A
O673       Zr675   2.430       .  S
O673        C679   1.289       .  A
O674       Zr675   2.426       .  S
O674        C678   1.288       .  A
Zr675       O676   2.337       .  S
Zr675       O677   2.338       .  S
Zr675       O685   2.340       .  S
Zr675       O683   2.339       .  S
O676       Zr702   2.340       .  S
O676       Zr705   2.338       .  S
O677       Zr703   2.338       .  S
O677       Zr704   2.339       .  S
C678       C1766   1.427       .  S
C679       C1400   1.430       .  S
C680       C1430   1.427       .  S
C681       C1360   1.432       .  S
H682        O683   0.965       .  S
O683       Zr702   2.340       .  S
O683       Zr704   2.340       .  S
H684        O685   0.965       .  S
O685       Zr703   2.341       .  S
O685       Zr705   2.340       .  S
O686       Zr702   2.443       .  S
O686        C709   1.292       .  A
O687       Zr703   2.439       .  S
O687        C710   1.291       .  A
O688       Zr704   2.437       .  S
O688        C711   1.290       .  A
O689       Zr705   2.440       .  S
O689        C712   1.291       .  A
O690       Zr705   2.437       .  S
O690        C713   1.290       .  A
O691       Zr704   2.437       .  S
O691        C714   1.290       .  A
O692       Zr706   2.437       .  S
O692        C715   1.290       .  A
O693       Zr706   2.437       .  S
O693        C716   1.290       .  A
O694       Zr704   2.429       .  S
O694        C715   1.289       .  A
O695       Zr705   2.433       .  S
O695        C716   1.290       .  A
O696       Zr702   2.440       .  S
O696        C711   1.291       .  A
O697       Zr703   2.432       .  S
O697        C714   1.289       .  A
O698       Zr703   2.433       .  S
O698        C713   1.289       .  A
O699       Zr702   2.433       .  S
O699        C712   1.290       .  A
O700       Zr706   2.430       .  S
O700        C709   1.289       .  A
O701       Zr706   2.443       .  S
O701        C710   1.291       .  A
Zr702       O708   2.338       .  S
Zr702       O720   2.343       .  S
Zr703       O707   2.339       .  S
Zr703       O718   2.340       .  S
Zr704       O708   2.337       .  S
Zr704       O718   2.339       .  S
Zr705       O707   2.341       .  S
Zr705       O720   2.342       .  S
Zr706       O707   2.337       .  S
Zr706       O708   2.341       .  S
Zr706       O720   2.342       .  S
Zr706       O718   2.336       .  S
C709       C1276   1.432       .  S
C710        C812   1.436       .  S
C711       C1248   1.433       .  S
C712       C1386   1.432       .  S
C713       C1738   1.430       .  S
C714       C1654   1.430       .  S
C715       C1626   1.429       .  S
C716        C842   1.431       .  S
H717        O718   0.965       .  S
H719        O720   0.965       .  S
C721        C729   1.439       .  S
C721        C722   1.402       .  A
C721        C726   1.401       .  A
C722        C723   1.400       .  A
C722        H731   1.083       .  S
C723        C724   1.402       .  A
C723        H732   1.083       .  S
C724        C727   1.439       .  S
C724        C725   1.401       .  A
C725        C726   1.398       .  A
C725        H733   1.083       .  S
C726        H734   1.083       .  S
C727        C728   1.205       .  T
C729        C730   1.205       .  T
C735        C743   1.443       .  S
C735        C736   1.402       .  A
C735        C740   1.402       .  A
C736        C737   1.401       .  A
C736        H745   1.083       .  S
C737        C738   1.403       .  A
C737        H746   1.084       .  S
C738        C741   1.443       .  S
C738        C739   1.401       .  A
C739        C740   1.400       .  A
C739        H747   1.083       .  S
C740        H748   1.083       .  S
C741        C742   1.208       .  T
C743        C744   1.208       .  T
C749        C757   1.440       .  S
C749        C750   1.401       .  A
C749        C754   1.402       .  A
C750        C751   1.399       .  A
C750        H759   1.084       .  S
C751        C752   1.402       .  A
C751        H760   1.084       .  S
C752        C755   1.441       .  S
C752        C753   1.401       .  A
C753        C754   1.400       .  A
C753        H761   1.083       .  S
C754        H762   1.083       .  S
C755        C756   1.207       .  T
C757        C758   1.206       .  T
C763        C771   1.438       .  S
C763        C764   1.402       .  A
C763        C768   1.400       .  A
C764        C765   1.400       .  A
C764        H773   1.083       .  S
C765        C766   1.402       .  A
C765        H774   1.083       .  S
C766        C769   1.439       .  S
C766        C767   1.401       .  A
C767        C768   1.397       .  A
C767        H775   1.084       .  S
C768        H776   1.084       .  S
C769        C770   1.206       .  T
C771        C772   1.204       .  T
C777        C785   1.439       .  S
C777        C778   1.401       .  A
C777        C782   1.401       .  A
C778        C779   1.399       .  A
C778        H787   1.083       .  S
C779        C780   1.401       .  A
C779        H788   1.083       .  S
C780        C783   1.439       .  S
C780        C781   1.401       .  A
C781        C782   1.398       .  A
C781        H789   1.084       .  S
C782        H790   1.083       .  S
C783        C784   1.205       .  T
C785        C786   1.205       .  T
C791        C799   1.439       .  S
C791        C792   1.401       .  A
C791        C796   1.401       .  A
C792        C793   1.398       .  A
C792        H801   1.084       .  S
C793        C794   1.401       .  A
C793        H802   1.083       .  S
C794        C797   1.439       .  S
C794        C795   1.401       .  A
C795        C796   1.399       .  A
C795        H803   1.083       .  S
C796        H804   1.083       .  S
C797        C798   1.206       .  T
C799        C800   1.205       .  T
C805        C813   1.441       .  S
C805        C806   1.401       .  A
C805        C810   1.402       .  A
C806        C807   1.398       .  A
C806        H815   1.084       .  S
C807        C808   1.401       .  A
C807        H816   1.083       .  S
C808        C811   1.441       .  S
C808        C809   1.402       .  A
C809        C810   1.401       .  A
C809        H817   1.083       .  S
C810        H818   1.083       .  S
C811        C812   1.207       .  T
C813        C814   1.207       .  T
C819        C827   1.435       .  S
C819        C820   1.400       .  A
C819        C824   1.401       .  A
C820        C821   1.396       .  A
C820        H829   1.084       .  S
C821        C822   1.401       .  A
C821        H830   1.084       .  S
C822        C825   1.436       .  S
C822        C823   1.401       .  A
C823        C824   1.398       .  A
C823        H831   1.083       .  S
C824        H832   1.083       .  S
C825        C826   1.204       .  T
C827        C828   1.203       .  T
C833        C841   1.436       .  S
C833        C834   1.401       .  A
C833        C838   1.400       .  A
C834        C835   1.398       .  A
C834        H843   1.084       .  S
C835        C836   1.401       .  A
C835        H844   1.083       .  S
C836        C839   1.435       .  S
C836        C837   1.401       .  A
C837        C838   1.397       .  A
C837        H845   1.084       .  S
C838        H846   1.083       .  S
C839        C840   1.203       .  T
C841        C842   1.203       .  T
C847        C855   1.432       .  S
C847        C848   1.399       .  A
C847        C852   1.401       .  A
C848        C849   1.395       .  A
C848        H857   1.084       .  S
C849        C850   1.400       .  A
C849        H858   1.084       .  S
C850        C853   1.432       .  S
C850        C851   1.400       .  A
C851        C852   1.396       .  A
C851        H859   1.084       .  S
C852        H860   1.084       .  S
C853        C854   1.201       .  T
C855        C856   1.201       .  T
C861        C869   1.438   1_655  S
C861        C862   1.401       .  A
C861        C866   1.401       .  A
C862        C863   1.398       .  A
C862        H871   1.083       .  S
C863        C864   1.401       .  A
C863        H872   1.083       .  S
C864        C867   1.439       .  S
C864        C865   1.401       .  A
C865        C866   1.399       .  A
C865        H873   1.083       .  S
C866        H874   1.083       .  S
C867        C868   1.206       .  T
C869        C870   1.205       .  T
C875        C883   1.438   1_655  S
C875        C876   1.401       .  A
C875        C880   1.401       .  A
C876        C877   1.398       .  A
C876        H885   1.084       .  S
C877        C878   1.400       .  A
C877        H886   1.084       .  S
C878        C881   1.438       .  S
C878        C879   1.402       .  A
C879        C880   1.399       .  A
C879        H887   1.083       .  S
C880        H888   1.083   1_655  S
C881        C882   1.205       .  T
C883        C884   1.205       .  T
C889        C897   1.435       .  S
C889        C890   1.400       .  A
C889        C894   1.401       .  A
C890        C891   1.396       .  A
C890        H899   1.084       .  S
C891        C892   1.400       .  A
C891        H900   1.083       .  S
C892        C895   1.436       .  S
C892        C893   1.402       .  A
C893        C894   1.398       .  A
C893        H901   1.084       .  S
C894        H902   1.084       .  S
C895        C896   1.204       .  T
C897        C898   1.203       .  T
C903        C911   1.434       .  S
C903        C904   1.400       .  A
C903        C908   1.401       .  A
C904        C905   1.396       .  A
C904        H913   1.083       .  S
C905        C906   1.399       .  A
C905        H914   1.084       .  S
C906        C909   1.432       .  S
C906        C907   1.401       .  A
C907        C908   1.397       .  A
C907        H915   1.084       .  S
C908        H916   1.084       .  S
C909        C910   1.201       .  T
C911        C912   1.203       .  T
C917        C925   1.442       .  S
C917        C918   1.403       .  A
C917        C922   1.400       .  A
C918        C919   1.403       .  A
C918        H927   1.084       .  S
C919        C920   1.403       .  A
C919        H928   1.083       .  S
C920        C923   1.443       .  S
C920        C921   1.401       .  A
C921        C922   1.398       .  A
C921        H929   1.083       .  S
C922        H930   1.083       .  S
C923        C924   1.208       .  T
C925        C926   1.207       .  T
C931        C939   1.433       .  S
C931        C932   1.400       .  A
C931        C936   1.400       .  A
C932        C933   1.396       .  A
C932        H941   1.084       .  S
C933        C934   1.400       .  A
C933        H942   1.083       .  S
C934        C937   1.434       .  S
C934        C935   1.401       .  A
C935        C936   1.397       .  A
C935        H943   1.084       .  S
C936        H944   1.084       .  S
C937        C938   1.202       .  T
C939        C940   1.202       .  T
C945        C953   1.438       .  S
C945        C946   1.401       .  A
C945        C950   1.401       .  A
C946        C947   1.398       .  A
C946        H955   1.083       .  S
C947        C948   1.401       .  A
C947        H956   1.084       .  S
C948        C951   1.438       .  S
C948        C949   1.401       .  A
C949        C950   1.398       .  A
C949        H957   1.083       .  S
C950        H958   1.083       .  S
C951        C952   1.205       .  T
C953        C954   1.205       .  T
C959        C967   1.438       .  S
C959        C960   1.402       .  A
C959        C964   1.400       .  A
C960        C961   1.399       .  A
C960        H969   1.083       .  S
C961        C962   1.401       .  A
C961        H970   1.083       .  S
C962        C965   1.437       .  S
C962        C963   1.400       .  A
C963        C964   1.397       .  A
C963        H971   1.084       .  S
C964        H972   1.083       .  S
C965        C966   1.204       .  T
C967        C968   1.205       .  T
C973        C981   1.433       .  S
C973        C974   1.400       .  A
C973        C978   1.400       .  A
C974        C975   1.396       .  A
C974        H983   1.083       .  S
C975        C976   1.400       .  A
C975        H984   1.084       .  S
C976        C979   1.432       .  S
C976        C977   1.400       .  A
C977        C978   1.396       .  A
C977        H985   1.084       .  S
C978        H986   1.084       .  S
C979        C980   1.201       .  T
C981        C982   1.202       .  T
C987        C995   1.439       .  S
C987        C988   1.401       .  A
C987        C992   1.401       .  A
C988        C989   1.399       .  A
C988        H997   1.083       .  S
C989        C990   1.401       .  A
C989        H998   1.083       .  S
C990        C993   1.439       .  S
C990        C991   1.401       .  A
C991        C992   1.398       .  A
C991        H999   1.084       .  S
C992       H1000   1.084       .  S
C993        C994   1.206       .  T
C995        C996   1.205       .  T
C1001      C1009   1.436       .  S
C1001      C1002   1.401       .  A
C1001      C1006   1.400       .  A
C1002      C1003   1.398       .  A
C1002      H1011   1.083       .  S
C1003      C1004   1.401       .  A
C1003      H1012   1.083       .  S
C1004      C1007   1.436       .  S
C1004      C1005   1.401       .  A
C1005      C1006   1.397       .  A
C1005      H1013   1.084       .  S
C1006      H1014   1.084       .  S
C1007      C1008   1.204       .  T
C1009      C1010   1.204       .  T
C1015      C1023   1.437       .  S
C1015      C1016   1.402       .  A
C1015      C1020   1.400       .  A
C1016      C1017   1.400       .  A
C1016      H1025   1.083       .  S
C1017      C1018   1.401       .  A
C1017      H1026   1.083       .  S
C1018      C1021   1.437       .  S
C1018      C1019   1.400       .  A
C1019      C1020   1.396       .  A
C1019      H1027   1.084       .  S
C1020      H1028   1.084       .  S
C1021      C1022   1.204       .  T
C1023      C1024   1.204       .  T
C1029      C1037   1.435   1_655  S
C1029      C1030   1.400       .  A
C1029      C1034   1.401       .  A
C1030      C1031   1.395       .  A
C1030      H1039   1.084       .  S
C1031      C1032   1.399       .  A
C1031      H1040   1.083       .  S
C1032      C1035   1.436       .  S
C1032      C1033   1.403       .  A
C1033      C1034   1.400       .  A
C1033      H1041   1.083       .  S
C1034      H1042   1.083   1_655  S
C1035      C1036   1.204       .  T
C1037      C1038   1.203       .  T
C1043      C1051   1.441   1_655  S
C1043      C1044   1.402       .  A
C1043      C1048   1.401       .  A
C1044      C1045   1.399       .  A
C1044      H1053   1.084       .  S
C1045      C1046   1.401       .  A
C1045      H1054   1.084       .  S
C1046      C1049   1.439       .  S
C1046      C1047   1.401       .  A
C1047      C1048   1.399       .  A
C1047      H1055   1.083       .  S
C1048      H1056   1.083   1_655  S
C1049      C1050   1.206       .  T
C1051      C1052   1.206       .  T
C1057      C1065   1.438       .  S
C1057      C1058   1.400       .  A
C1057      C1062   1.402       .  A
C1058      C1059   1.397       .  A
C1058      H1067   1.083       .  S
C1059      C1060   1.401       .  A
C1059      H1068   1.084       .  S
C1060      C1063   1.438       .  S
C1060      C1061   1.401       .  A
C1061      C1062   1.399       .  A
C1061      H1069   1.083       .  S
C1062      H1070   1.083       .  S
C1063      C1064   1.205       .  T
C1065      C1066   1.205       .  T
C1071      C1079   1.436       .  S
C1071      C1072   1.400       .  A
C1071      C1076   1.402       .  A
C1072      C1073   1.396       .  A
C1072      H1081   1.084       .  S
C1073      C1074   1.400       .  A
C1073      H1082   1.084       .  S
C1074      C1077   1.436       .  S
C1074      C1075   1.401       .  A
C1075      C1076   1.399       .  A
C1075      H1083   1.083       .  S
C1076      H1084   1.083       .  S
C1077      C1078   1.203       .  T
C1079      C1080   1.204       .  T
C1085      C1093   1.436       .  S
C1085      C1086   1.401       .  A
C1085      C1090   1.400       .  A
C1086      C1087   1.398       .  A
C1086      H1095   1.083       .  S
C1087      C1088   1.401       .  A
C1087      H1096   1.083       .  S
C1088      C1091   1.437       .  S
C1088      C1089   1.401       .  A
C1089      C1090   1.397       .  A
C1089      H1097   1.084       .  S
C1090      H1098   1.084       .  S
C1091      C1092   1.204       .  T
C1093      C1094   1.204       .  T
C1099      C1107   1.436       .  S
C1099      C1100   1.402       .  A
C1099      C1104   1.400       .  A
C1100      C1101   1.399       .  A
C1100      H1109   1.083       .  S
C1101      C1102   1.401       .  A
C1101      H1110   1.083       .  S
C1102      C1105   1.436       .  S
C1102      C1103   1.400       .  A
C1103      C1104   1.396       .  A
C1103      H1111   1.084       .  S
C1104      H1112   1.084       .  S
C1105      C1106   1.204       .  T
C1107      C1108   1.204       .  T
C1113      C1121   1.435       .  S
C1113      C1114   1.400       .  A
C1113      C1118   1.401       .  A
C1114      C1115   1.396       .  A
C1114      H1123   1.084       .  S
C1115      C1116   1.401       .  A
C1115      H1124   1.084       .  S
C1116      C1119   1.436       .  S
C1116      C1117   1.400       .  A
C1117      C1118   1.398       .  A
C1117      H1125   1.083       .  S
C1118      H1126   1.083       .  S
C1119      C1120   1.204       .  T
C1121      C1122   1.203       .  T
C1127      C1135   1.431       .  S
C1127      C1128   1.400       .  A
C1127      C1132   1.400       .  A
C1128      C1129   1.396       .  A
C1128      H1137   1.084       .  S
C1129      C1130   1.400       .  A
C1129      H1138   1.083       .  S
C1130      C1133   1.432       .  S
C1130      C1131   1.400       .  A
C1131      C1132   1.396       .  A
C1131      H1139   1.084       .  S
C1132      H1140   1.084       .  S
C1133      C1134   1.201       .  T
C1135      C1136   1.201       .  T
C1141      C1149   1.440       .  S
C1141      C1142   1.401       .  A
C1141      C1146   1.402       .  A
C1142      C1143   1.399       .  A
C1142      H1151   1.083       .  S
C1143      C1144   1.401       .  A
C1143      H1152   1.083       .  S
C1144      C1147   1.439       .  S
C1144      C1145   1.401       .  A
C1145      C1146   1.399       .  A
C1145      H1153   1.084       .  S
C1146      H1154   1.084       .  S
C1147      C1148   1.206       .  T
C1149      C1150   1.206       .  T
C1155      C1163   1.436       .  S
C1155      C1156   1.401       .  A
C1155      C1160   1.400       .  A
C1156      C1157   1.398       .  A
C1156      H1165   1.083       .  S
C1157      C1158   1.400       .  A
C1157      H1166   1.083       .  S
C1158      C1161   1.435       .  S
C1158      C1159   1.401       .  A
C1159      C1160   1.396       .  A
C1159      H1167   1.084       .  S
C1160      H1168   1.084       .  S
C1161      C1162   1.203       .  T
C1163      C1164   1.204       .  T
C1169      C1177   1.439       .  S
C1169      C1170   1.401       .  A
C1169      C1174   1.402       .  A
C1170      C1171   1.398       .  A
C1170      H1179   1.084       .  S
C1171      C1172   1.400       .  A
C1171      H1180   1.083       .  S
C1172      C1175   1.439       .  S
C1172      C1173   1.402       .  A
C1173      C1174   1.400       .  A
C1173      H1181   1.083       .  S
C1174      H1182   1.083       .  S
C1175      C1176   1.205       .  T
C1177      C1178   1.206       .  T
C1183      C1191   1.434       .  S
C1183      C1184   1.400       .  A
C1183      C1188   1.400       .  A
C1184      C1185   1.397       .  A
C1184      H1193   1.084       .  S
C1185      C1186   1.400       .  A
C1185      H1194   1.084       .  S
C1186      C1189   1.434       .  S
C1186      C1187   1.400       .  A
C1187      C1188   1.397       .  A
C1187      H1195   1.084       .  S
C1188      H1196   1.083       .  S
C1189      C1190   1.203       .  T
C1191      C1192   1.203       .  T
C1197      C1205   1.433       .  S
C1197      C1198   1.400       .  A
C1197      C1202   1.401       .  A
C1198      C1199   1.395       .  A
C1198      H1207   1.084       .  S
C1199      C1200   1.399       .  A
C1199      H1208   1.084       .  S
C1200      C1203   1.432       .  S
C1200      C1201   1.401       .  A
C1201      C1202   1.397       .  A
C1201      H1209   1.084       .  S
C1202      H1210   1.084       .  S
C1203      C1204   1.201       .  T
C1205      C1206   1.202       .  T
C1211      C1219   1.437       .  S
C1211      C1212   1.401       .  A
C1211      C1216   1.401       .  A
C1212      C1213   1.398       .  A
C1212      H1221   1.083       .  S
C1213      C1214   1.401       .  A
C1213      H1222   1.083       .  S
C1214      C1217   1.436       .  S
C1214      C1215   1.400       .  A
C1215      C1216   1.397       .  A
C1215      H1223   1.084       .  S
C1216      H1224   1.084       .  S
C1217      C1218   1.204       .  T
C1219      C1220   1.204       .  T
C1225      C1233   1.437       .  S
C1225      C1226   1.401       .  A
C1225      C1230   1.401       .  A
C1226      C1227   1.397       .  A
C1226      H1235   1.084       .  S
C1227      C1228   1.400       .  A
C1227      H1236   1.084       .  S
C1228      C1231   1.436       .  S
C1228      C1229   1.401       .  A
C1229      C1230   1.398       .  A
C1229      H1237   1.084       .  S
C1230      H1238   1.083       .  S
C1231      C1232   1.203       .  T
C1233      C1234   1.204       .  T
C1239      C1247   1.438       .  S
C1239      C1240   1.401       .  A
C1239      C1244   1.401       .  A
C1240      C1241   1.399       .  A
C1240      H1249   1.083       .  S
C1241      C1242   1.401       .  A
C1241      H1250   1.083       .  S
C1242      C1245   1.439       .  S
C1242      C1243   1.401       .  A
C1243      C1244   1.398       .  A
C1243      H1251   1.083       .  S
C1244      H1252   1.084       .  S
C1245      C1246   1.205       .  T
C1247      C1248   1.205       .  T
C1253      C1261   1.436       .  S
C1253      C1254   1.400       .  A
C1253      C1258   1.401       .  A
C1254      C1255   1.397       .  A
C1254      H1263   1.084       .  S
C1255      C1256   1.401       .  A
C1255      H1264   1.084       .  S
C1256      C1259   1.437       .  S
C1256      C1257   1.401       .  A
C1257      C1258   1.399       .  A
C1257      H1265   1.083       .  S
C1258      H1266   1.083       .  S
C1259      C1260   1.204       .  T
C1261      C1262   1.204       .  T
C1267      C1275   1.438       .  S
C1267      C1268   1.402       .  A
C1267      C1272   1.400       .  A
C1268      C1269   1.400       .  A
C1268      H1277   1.083       .  S
C1269      C1270   1.402       .  A
C1269      H1278   1.083       .  S
C1270      C1273   1.439       .  S
C1270      C1271   1.401       .  A
C1271      C1272   1.397       .  A
C1271      H1279   1.083       .  S
C1272      H1280   1.084       .  S
C1273      C1274   1.206       .  T
C1275      C1276   1.205       .  T
C1281      C1289   1.434       .  S
C1281      C1282   1.400       .  A
C1281      C1286   1.401       .  A
C1282      C1283   1.395       .  A
C1282      H1291   1.084       .  S
C1283      C1284   1.399       .  A
C1283      H1292   1.084       .  S
C1284      C1287   1.434       .  S
C1284      C1285   1.401       .  A
C1285      C1286   1.398       .  A
C1285      H1293   1.083       .  S
C1286      H1294   1.083       .  S
C1287      C1288   1.203       .  T
C1289      C1290   1.202       .  T
C1295      C1303   1.443       .  S
C1295      C1296   1.403       .  A
C1295      C1300   1.401       .  A
C1296      C1297   1.401       .  A
C1296      H1305   1.084       .  S
C1297      C1298   1.402       .  A
C1297      H1306   1.083       .  S
C1298      C1301   1.443       .  S
C1298      C1299   1.402       .  A
C1299      C1300   1.400       .  A
C1299      H1307   1.083       .  S
C1300      H1308   1.083       .  S
C1301      C1302   1.208       .  T
C1303      C1304   1.208       .  T
C1309      C1317   1.435       .  S
C1309      C1310   1.400       .  A
C1309      C1314   1.401       .  A
C1310      C1311   1.398       .  A
C1310      H1319   1.083       .  S
C1311      C1312   1.401       .  A
C1311      H1320   1.083       .  S
C1312      C1315   1.435       .  S
C1312      C1313   1.400       .  A
C1313      C1314   1.397       .  A
C1313      H1321   1.084       .  S
C1314      H1322   1.084       .  S
C1315      C1316   1.203       .  T
C1317      C1318   1.203       .  T
C1323      C1331   1.442       .  S
C1323      C1324   1.401       .  A
C1323      C1328   1.402       .  A
C1324      C1325   1.399       .  A
C1324      H1333   1.083       .  S
C1325      C1326   1.401       .  A
C1325      H1334   1.083       .  S
C1326      C1329   1.444       .  S
C1326      C1327   1.403       .  A
C1327      C1328   1.401       .  A
C1327      H1335   1.083       .  S
C1328      H1336   1.084       .  S
C1329      C1330   1.209       .  T
C1331      C1332   1.207       .  T
C1337      C1345   1.442       .  S
C1337      C1338   1.403       .  A
C1337      C1342   1.401       .  A
C1338      C1339   1.402       .  A
C1338      H1347   1.083       .  S
C1339      C1340   1.402       .  A
C1339      H1348   1.083       .  S
C1340      C1343   1.442       .  S
C1340      C1341   1.401       .  A
C1341      C1342   1.398       .  A
C1341      H1349   1.083       .  S
C1342      H1350   1.083       .  S
C1343      C1344   1.207       .  T
C1345      C1346   1.207       .  T
C1351      C1359   1.437       .  S
C1351      C1352   1.401       .  A
C1351      C1356   1.401       .  A
C1352      C1353   1.399       .  A
C1352      H1361   1.083       .  S
C1353      C1354   1.401       .  A
C1353      H1362   1.083       .  S
C1354      C1357   1.437       .  S
C1354      C1355   1.401       .  A
C1355      C1356   1.397       .  A
C1355      H1363   1.083       .  S
C1356      H1364   1.084       .  S
C1357      C1358   1.204       .  T
C1359      C1360   1.204       .  T
C1365      C1373   1.444       .  S
C1365      C1366   1.402       .  A
C1365      C1370   1.402       .  A
C1366      C1367   1.401       .  A
C1366      H1375   1.083       .  S
C1367      C1368   1.402       .  A
C1367      H1376   1.084       .  S
C1368      C1371   1.442       .  S
C1368      C1369   1.401       .  A
C1369      C1370   1.400       .  A
C1369      H1377   1.083       .  S
C1370      H1378   1.083       .  S
C1371      C1372   1.207       .  T
C1373      C1374   1.208       .  T
C1379      C1387   1.437       .  S
C1379      C1380   1.400       .  A
C1379      C1384   1.401       .  A
C1380      C1381   1.396       .  A
C1380      H1389   1.084       .  S
C1381      C1382   1.400       .  A
C1381      H1390   1.084       .  S
C1382      C1385   1.437       .  S
C1382      C1383   1.402       .  A
C1383      C1384   1.399       .  A
C1383      H1391   1.083       .  S
C1384      H1392   1.083       .  S
C1385      C1386   1.204       .  T
C1387      C1388   1.204       .  T
C1393      C1401   1.435       .  S
C1393      C1394   1.400       .  A
C1393      C1398   1.400       .  A
C1394      C1395   1.396       .  A
C1394      H1403   1.084       .  S
C1395      C1396   1.400       .  A
C1395      H1404   1.084       .  S
C1396      C1399   1.435       .  S
C1396      C1397   1.401       .  A
C1397      C1398   1.398       .  A
C1397      H1405   1.083       .  S
C1398      H1406   1.083       .  S
C1399      C1400   1.203       .  T
C1401      C1402   1.203       .  T
C1407      C1415   1.441       .  S
C1407      C1408   1.401       .  A
C1407      C1412   1.402       .  A
C1408      C1409   1.399       .  A
C1408      H1417   1.084       .  S
C1409      C1410   1.402       .  A
C1409      H1418   1.083   1_655  S
C1410      C1413   1.441   1_655  S
C1410      C1411   1.401       .  A
C1411      C1412   1.400       .  A
C1411      H1419   1.083       .  S
C1412      H1420   1.083       .  S
C1413      C1414   1.206       .  T
C1415      C1416   1.207       .  T
C1421      C1429   1.433       .  S
C1421      C1422   1.400       .  A
C1421      C1426   1.400       .  A
C1422      C1423   1.397       .  A
C1422      H1431   1.084       .  S
C1423      C1424   1.400       .  A
C1423      H1432   1.083       .  S
C1424      C1427   1.435       .  S
C1424      C1425   1.401       .  A
C1425      C1426   1.397       .  A
C1425      H1433   1.083       .  S
C1426      H1434   1.084       .  S
C1427      C1428   1.203       .  T
C1429      C1430   1.202       .  T
C1435      C1443   1.438   1_655  S
C1435      C1436   1.401       .  A
C1435      C1440   1.401       .  A
C1436      C1437   1.398       .  A
C1436      H1445   1.084   1_655  S
C1437      C1438   1.401       .  A
C1437      H1446   1.083       .  S
C1438      C1441   1.439       .  S
C1438      C1439   1.402       .  A
C1439      C1440   1.400       .  A
C1439      H1447   1.083       .  S
C1440      H1448   1.083       .  S
C1441      C1442   1.206       .  T
C1443      C1444   1.205       .  T
C1449      C1457   1.441   1_655  S
C1449      C1450   1.401       .  A
C1449      C1454   1.402       .  A
C1450      C1451   1.399       .  A
C1450      H1459   1.083       .  S
C1451      C1452   1.401       .  A
C1451      H1460   1.084       .  S
C1452      C1455   1.439       .  S
C1452      C1453   1.401       .  A
C1453      C1454   1.399       .  A
C1453      H1461   1.083       .  S
C1454      H1462   1.083       .  S
C1455      C1456   1.205       .  T
C1457      C1458   1.207       .  T
C1463      C1471   1.439       .  S
C1463      C1464   1.402       .  A
C1463      C1468   1.401       .  A
C1464      C1465   1.400       .  A
C1464      H1473   1.083       .  S
C1465      C1466   1.402       .  A
C1465      H1474   1.083       .  S
C1466      C1469   1.439       .  S
C1466      C1467   1.400       .  A
C1467      C1468   1.397       .  A
C1467      H1475   1.084       .  S
C1468      H1476   1.084       .  S
C1469      C1470   1.205       .  T
C1471      C1472   1.205       .  T
C1477      C1485   1.438   1_655  S
C1477      C1478   1.401       .  A
C1477      C1482   1.401       .  A
C1478      C1479   1.397       .  A
C1478      H1487   1.084   1_655  S
C1479      C1480   1.400       .  A
C1479      H1488   1.084       .  S
C1480      C1483   1.437       .  S
C1480      C1481   1.401       .  A
C1481      C1482   1.399       .  A
C1481      H1489   1.083       .  S
C1482      H1490   1.083       .  S
C1483      C1484   1.204       .  T
C1485      C1486   1.205       .  T
C1491      C1499   1.437       .  S
C1491      C1492   1.401       .  A
C1491      C1496   1.401       .  A
C1492      C1493   1.398       .  A
C1492      H1501   1.084       .  S
C1493      C1494   1.401       .  A
C1493      H1502   1.083       .  S
C1494      C1497   1.438       .  S
C1494      C1495   1.401       .  A
C1495      C1496   1.398       .  A
C1495      H1503   1.083       .  S
C1496      H1504   1.083       .  S
C1497      C1498   1.205       .  T
C1499      C1500   1.204       .  T
C1505      C1513   1.442       .  S
C1505      C1506   1.402       .  A
C1505      C1510   1.401       .  A
C1506      C1507   1.400       .  A
C1506      H1515   1.083       .  S
C1507      C1508   1.402       .  A
C1507      H1516   1.083       .  S
C1508      C1511   1.442       .  S
C1508      C1509   1.402       .  A
C1509      C1510   1.400       .  A
C1509      H1517   1.083       .  S
C1510      H1518   1.083       .  S
C1511      C1512   1.207       .  T
C1513      C1514   1.207       .  T
C1519      C1527   1.440       .  S
C1519      C1520   1.401       .  A
C1519      C1524   1.402       .  A
C1520      C1521   1.398       .  A
C1520      H1529   1.083       .  S
C1521      C1522   1.401       .  A
C1521      H1530   1.083       .  S
C1522      C1525   1.440   1_655  S
C1522      C1523   1.401       .  A
C1523      C1524   1.400       .  A
C1523      H1531   1.083       .  S
C1524      H1532   1.083       .  S
C1525      C1526   1.206       .  T
C1527      C1528   1.206       .  T
C1533      C1541   1.436       .  S
C1533      C1534   1.401       .  A
C1533      C1538   1.400       .  A
C1534      C1535   1.398       .  A
C1534      H1543   1.083       .  S
C1535      C1536   1.401       .  A
C1535      H1544   1.083       .  S
C1536      C1539   1.437       .  S
C1536      C1537   1.401       .  A
C1537      C1538   1.397       .  A
C1537      H1545   1.083       .  S
C1538      H1546   1.084       .  S
C1539      C1540   1.204       .  T
C1541      C1542   1.204       .  T
C1547      C1555   1.435   1_655  S
C1547      C1548   1.401       .  A
C1547      C1552   1.400       .  A
C1548      C1549   1.396       .  A
C1548      H1557   1.084   1_655  S
C1549      C1550   1.400       .  A
C1549      H1558   1.084       .  S
C1550      C1553   1.434       .  S
C1550      C1551   1.401       .  A
C1551      C1552   1.398       .  A
C1551      H1559   1.083       .  S
C1552      H1560   1.083       .  S
C1553      C1554   1.203       .  T
C1555      C1556   1.203       .  T
C1561      C1569   1.440       .  S
C1561      C1562   1.402       .  A
C1561      C1566   1.401       .  A
C1562      C1563   1.400       .  A
C1562      H1571   1.083       .  S
C1563      C1564   1.402       .  A
C1563      H1572   1.083       .  S
C1564      C1567   1.441       .  S
C1564      C1565   1.402       .  A
C1565      C1566   1.399       .  A
C1565      H1573   1.083       .  S
C1566      H1574   1.083       .  S
C1567      C1568   1.207       .  T
C1569      C1570   1.206       .  T
C1575      C1583   1.436       .  S
C1575      C1576   1.401       .  A
C1575      C1580   1.400       .  A
C1576      C1577   1.398       .  A
C1576      H1585   1.084       .  S
C1577      C1578   1.401       .  A
C1577      H1586   1.084   1_655  S
C1578      C1581   1.436   1_655  S
C1578      C1579   1.401       .  A
C1579      C1580   1.398       .  A
C1579      H1587   1.083       .  S
C1580      H1588   1.083       .  S
C1581      C1582   1.204       .  T
C1583      C1584   1.204       .  T
C1589      C1597   1.435       .  S
C1589      C1590   1.401       .  A
C1589      C1594   1.400       .  A
C1590      C1591   1.398       .  A
C1590      H1599   1.083       .  S
C1591      C1592   1.400       .  A
C1591      H1600   1.083       .  S
C1592      C1595   1.435       .  S
C1592      C1593   1.401       .  A
C1593      C1594   1.396       .  A
C1593      H1601   1.084       .  S
C1594      H1602   1.084       .  S
C1595      C1596   1.203       .  T
C1597      C1598   1.203       .  T
C1603      C1611   1.433       .  S
C1603      C1604   1.399       .  A
C1603      C1608   1.401       .  A
C1604      C1605   1.395       .  A
C1604      H1613   1.084       .  S
C1605      C1606   1.400       .  A
C1605      H1614   1.084       .  S
C1606      C1609   1.434   1_655  S
C1606      C1607   1.401       .  A
C1607      C1608   1.398       .  A
C1607      H1615   1.083       .  S
C1608      H1616   1.084       .  S
C1609      C1610   1.203       .  T
C1611      C1612   1.202       .  T
C1617      C1625   1.434       .  S
C1617      C1618   1.400       .  A
C1617      C1622   1.401       .  A
C1618      C1619   1.397       .  A
C1618      H1627   1.083       .  S
C1619      C1620   1.400       .  A
C1619      H1628   1.083       .  S
C1620      C1623   1.436       .  S
C1620      C1621   1.402       .  A
C1621      C1622   1.398       .  A
C1621      H1629   1.084       .  S
C1622      H1630   1.084       .  S
C1623      C1624   1.203       .  T
C1625      C1626   1.202       .  T
C1631      C1639   1.434       .  S
C1631      C1632   1.401       .  A
C1631      C1636   1.399       .  A
C1632      C1633   1.399       .  A
C1632      H1641   1.083       .  S
C1633      C1634   1.401       .  A
C1633      H1642   1.083       .  S
C1634      C1637   1.434       .  S
C1634      C1635   1.400       .  A
C1635      C1636   1.395       .  A
C1635      H1643   1.084       .  S
C1636      H1644   1.084       .  S
C1637      C1638   1.202       .  T
C1639      C1640   1.203       .  T
C1645      C1653   1.436       .  S
C1645      C1646   1.400       .  A
C1645      C1650   1.401       .  A
C1646      C1647   1.397       .  A
C1646      H1655   1.084       .  S
C1647      C1648   1.401       .  A
C1647      H1656   1.084       .  S
C1648      C1651   1.437       .  S
C1648      C1649   1.401       .  A
C1649      C1650   1.398       .  A
C1649      H1657   1.083       .  S
C1650      H1658   1.084       .  S
C1651      C1652   1.204       .  T
C1653      C1654   1.203       .  T
C1659      C1667   1.438       .  S
C1659      C1660   1.401       .  A
C1659      C1664   1.401       .  A
C1660      C1661   1.398       .  A
C1660      H1669   1.083       .  S
C1661      C1662   1.401       .  A
C1661      H1670   1.084       .  S
C1662      C1665   1.438       .  S
C1662      C1663   1.401       .  A
C1663      C1664   1.399       .  A
C1663      H1671   1.083       .  S
C1664      H1672   1.083       .  S
C1665      C1666   1.205       .  T
C1667      C1668   1.205       .  T
C1673      C1681   1.444       .  S
C1673      C1674   1.402       .  A
C1673      C1678   1.402       .  A
C1674      C1675   1.400       .  A
C1674      H1683   1.083       .  S
C1675      C1676   1.401       .  A
C1675      H1684   1.083       .  S
C1676      C1679   1.443       .  S
C1676      C1677   1.403       .  A
C1677      C1678   1.401       .  A
C1677      H1685   1.083       .  S
C1678      H1686   1.083       .  S
C1679      C1680   1.208       .  T
C1681      C1682   1.208       .  T
C1687      C1695   1.439       .  S
C1687      C1688   1.401       .  A
C1687      C1692   1.402       .  A
C1688      C1689   1.398       .  A
C1688      H1697   1.083       .  S
C1689      C1690   1.401       .  A
C1689      H1698   1.083       .  S
C1690      C1693   1.439       .  S
C1690      C1691   1.402       .  A
C1691      C1692   1.400       .  A
C1691      H1699   1.083       .  S
C1692      H1700   1.083       .  S
C1693      C1694   1.206       .  T
C1695      C1696   1.205       .  T
C1701      C1709   1.438       .  S
C1701      C1702   1.400       .  A
C1701      C1706   1.401       .  A
C1702      C1703   1.397       .  A
C1702      H1711   1.084       .  S
C1703      C1704   1.400       .  A
C1703      H1712   1.083       .  S
C1704      C1707   1.440       .  S
C1704      C1705   1.403       .  A
C1705      C1706   1.401       .  A
C1705      H1713   1.083       .  S
C1706      H1714   1.083       .  S
C1707      C1708   1.206       .  T
C1709      C1710   1.205       .  T
C1715      C1723   1.437       .  S
C1715      C1716   1.400       .  A
C1715      C1720   1.401       .  A
C1716      C1717   1.397       .  A
C1716      H1725   1.084       .  S
C1717      C1718   1.401       .  A
C1717      H1726   1.083       .  S
C1718      C1721   1.438       .  S
C1718      C1719   1.401       .  A
C1719      C1720   1.399       .  A
C1719      H1727   1.083       .  S
C1720      H1728   1.083       .  S
C1721      C1722   1.205       .  T
C1723      C1724   1.204       .  T
C1729      C1737   1.435       .  S
C1729      C1730   1.401       .  A
C1729      C1734   1.400       .  A
C1730      C1731   1.398       .  A
C1730      H1739   1.083       .  S
C1731      C1732   1.400       .  A
C1731      H1740   1.083       .  S
C1732      C1735   1.437       .  S
C1732      C1733   1.402       .  A
C1733      C1734   1.398       .  A
C1733      H1741   1.084       .  S
C1734      H1742   1.084       .  S
C1735      C1736   1.204       .  T
C1737      C1738   1.203       .  T
C1743      C1751   1.437       .  S
C1743      C1744   1.400       .  A
C1743      C1748   1.402       .  A
C1744      C1745   1.397       .  A
C1744      H1753   1.084       .  S
C1745      C1746   1.401       .  A
C1745      H1754   1.084       .  S
C1746      C1749   1.438       .  S
C1746      C1747   1.401       .  A
C1747      C1748   1.399       .  A
C1747      H1755   1.083       .  S
C1748      H1756   1.083       .  S
C1749      C1750   1.205       .  T
C1751      C1752   1.204       .  T
C1757      C1765   1.432       .  S
C1757      C1758   1.399       .  A
C1757      C1762   1.401       .  A
C1758      C1759   1.394       .  A
C1758      H1767   1.084       .  S
C1759      C1760   1.399       .  A
C1759      H1768   1.084       .  S
C1760      C1763   1.430       .  S
C1760      C1761   1.400       .  A
C1761      C1762   1.397       .  A
C1761      H1769   1.083       .  S
C1762      H1770   1.083       .  S
C1763      C1764   1.200       .  T
C1765      C1766   1.201       .  T
C1771      C1779   1.437       .  S
C1771      C1772   1.400       .  A
C1771      C1776   1.401       .  A
C1772      C1773   1.398       .  A
C1772      H1781   1.083       .  S
C1773      C1774   1.401       .  A
C1773      H1782   1.083       .  S
C1774      C1777   1.436       .  S
C1774      C1775   1.401       .  A
C1775      C1776   1.398       .  A
C1775      H1783   1.084       .  S
C1776      H1784   1.084       .  S
C1777      C1778   1.204       .  T
C1779      C1780   1.204       .  T
C1785      C1793   1.435       .  S
C1785      C1786   1.400       .  A
C1785      C1790   1.401       .  A
C1786      C1787   1.396       .  A
C1786      H1795   1.084       .  S
C1787      C1788   1.400       .  A
C1787      H1796   1.084       .  S
C1788      C1791   1.436       .  S
C1788      C1789   1.401       .  A
C1789      C1790   1.399       .  A
C1789      H1797   1.083       .  S
C1790      H1798   1.083       .  S
C1791      C1792   1.204       .  T
C1793      C1794   1.203       .  T
C1799      C1807   1.435       .  S
C1799      C1800   1.401       .  A
C1799      C1804   1.400       .  A
C1800      C1801   1.398       .  A
C1800      H1809   1.084       .  S
C1801      C1802   1.401       .  A
C1801      H1810   1.083       .  S
C1802      C1805   1.435       .  S
C1802      C1803   1.400       .  A
C1803      C1804   1.397       .  A
C1803      H1811   1.084       .  S
C1804      H1812   1.084       .  S
C1805      C1806   1.203       .  T
C1807      C1808   1.203       .  T
C1813      C1821   1.437   1_655  S
C1813      C1814   1.400       .  A
C1813      C1818   1.401       .  A
C1814      C1815   1.397       .  A
C1814      H1823   1.083       .  S
C1815      C1816   1.400       .  A
C1815      H1824   1.084       .  S
C1816      C1819   1.436       .  S
C1816      C1817   1.401       .  A
C1817      C1818   1.399       .  A
C1817      H1825   1.084       .  S
C1818      H1826   1.084       .  S
C1819      C1820   1.204       .  T
C1821      C1822   1.204       .  T
C1827      C1835   1.438       .  S
C1827      C1828   1.400       .  A
C1827      C1832   1.402       .  A
C1828      C1829   1.397       .  A
C1828      H1837   1.084       .  S
C1829      C1830   1.401       .  A
C1829      H1838   1.084       .  S
C1830      C1833   1.439   1_655  S
C1830      C1831   1.401       .  A
C1831      C1832   1.400       .  A
C1831      H1839   1.083       .  S
C1832      H1840   1.083       .  S
C1833      C1834   1.205       .  T
C1835      C1836   1.205       .  T
C1841      C1849   1.438       .  S
C1841      C1842   1.401       .  A
C1841      C1846   1.401       .  A
C1842      C1843   1.398       .  A
C1842      H1851   1.084       .  S
C1843      C1844   1.401       .  A
C1843      H1852   1.083       .  S
C1844      C1847   1.439       .  S
C1844      C1845   1.401       .  A
C1845      C1846   1.399       .  A
C1845      H1853   1.083       .  S
C1846      H1854   1.083       .  S
C1847      C1848   1.205       .  T
C1849      C1850   1.205       .  T
C1855      C1863   1.438       .  S
C1855      C1856   1.401       .  A
C1855      C1860   1.401       .  A
C1856      C1857   1.398       .  A
C1856      H1865   1.084       .  S
C1857      C1858   1.400       .  A
C1857      H1866   1.083       .  S
C1858      C1861   1.438       .  S
C1858      C1859   1.402       .  A
C1859      C1860   1.399       .  A
C1859      H1867   1.083       .  S
C1860      H1868   1.083       .  S
C1861      C1862   1.205       .  T
C1863      C1864   1.205       .  T
C1869      C1877   1.437       .  S
C1869      C1870   1.401       .  A
C1869      C1874   1.400       .  A
C1870      C1871   1.399       .  A
C1870      H1879   1.083       .  S
C1871      C1872   1.401       .  A
C1871      H1880   1.083       .  S
C1872      C1875   1.437       .  S
C1872      C1873   1.401       .  A
C1873      C1874   1.398       .  A
C1873      H1881   1.083       .  S
C1874      H1882   1.083       .  S
C1875      C1876   1.204       .  T
C1877      C1878   1.204       .  T
C1883      C1891   1.437       .  S
C1883      C1884   1.401       .  A
C1883      C1888   1.400       .  A
C1884      C1885   1.399       .  A
C1884      H1893   1.084       .  S
C1885      C1886   1.401       .  A
C1885      H1894   1.083       .  S
C1886      C1889   1.438       .  S
C1886      C1887   1.401       .  A
C1887      C1888   1.397       .  A
C1887      H1895   1.083       .  S
C1888      H1896   1.084       .  S
C1889      C1890   1.205       .  T
C1891      C1892   1.204       .  T
C1897      C1905   1.436       .  S
C1897      C1898   1.401       .  A
C1897      C1902   1.401       .  A
C1898      C1899   1.398       .  A
C1898      H1907   1.083       .  S
C1899      C1900   1.401       .  A
C1899      H1908   1.083       .  S
C1900      C1903   1.437       .  S
C1900      C1901   1.401       .  A
C1901      C1902   1.398       .  A
C1901      H1909   1.084       .  S
C1902      H1910   1.084       .  S
C1903      C1904   1.204       .  T
C1905      C1906   1.204       .  T
C1911      C1919   1.440       .  S
C1911      C1912   1.401       .  A
C1911      C1916   1.402       .  A
C1912      C1913   1.398       .  A
C1912      H1921   1.084       .  S
C1913      C1914   1.401       .  A
C1913      H1922   1.084       .  S
C1914      C1917   1.439       .  S
C1914      C1915   1.401       .  A
C1915      C1916   1.400       .  A
C1915      H1923   1.083       .  S
C1916      H1924   1.083       .  S
C1917      C1918   1.205       .  T
C1919      C1920   1.206       .  T
C1925      C1933   1.437       .  S
C1925      C1926   1.402       .  A
C1925      C1930   1.400       .  A
C1926      C1927   1.399       .  A
C1926      H1935   1.083       .  S
C1927      C1928   1.401       .  A
C1927      H1936   1.083       .  S
C1928      C1931   1.436       .  S
C1928      C1929   1.401       .  A
C1929      C1930   1.397       .  A
C1929      H1937   1.084       .  S
C1930      H1938   1.084       .  S
C1931      C1932   1.204       .  T
C1933      C1934   1.204       .  T
C1939      C1947   1.434       .  S
C1939      C1940   1.400       .  A
C1939      C1944   1.401       .  A
C1940      C1941   1.396       .  A
C1940      H1949   1.084       .  S
C1941      C1942   1.400       .  A
C1941      H1950   1.084       .  S
C1942      C1945   1.435       .  S
C1942      C1943   1.401       .  A
C1943      C1944   1.397       .  A
C1943      H1951   1.083       .  S
C1944      H1952   1.084       .  S
C1945      C1946   1.203       .  T
C1947      C1948   1.202       .  T
C1953      C1961   1.441       .  S
C1953      C1954   1.402       .  A
C1953      C1958   1.401       .  A
C1954      C1955   1.400       .  A
C1954      H1963   1.083       .  S
C1955      C1956   1.402       .  A
C1955      H1964   1.083       .  S
C1956      C1959   1.440       .  S
C1956      C1957   1.401       .  A
C1957      C1958   1.398       .  A
C1957      H1965   1.084       .  S
C1958      H1966   1.083       .  S
C1959      C1960   1.206       .  T
C1961      C1962   1.207       .  T
C1967      C1975   1.440       .  S
C1967      C1968   1.401       .  A
C1967      C1972   1.401       .  A
C1968      C1969   1.399       .  A
C1968      H1977   1.084       .  S
C1969      C1970   1.401       .  A
C1969      H1978   1.083       .  S
C1970      C1973   1.441       .  S
C1970      C1971   1.402       .  A
C1971      C1972   1.400       .  A
C1971      H1979   1.083       .  S
C1972      H1980   1.083       .  S
C1973      C1974   1.207       .  T
C1975      C1976   1.206       .  T
C1981      C1989   1.438       .  S
C1981      C1982   1.401       .  A
C1981      C1986   1.401       .  A
C1982      C1983   1.399       .  A
C1982      H1991   1.083   1_655  S
C1983      C1984   1.401       .  A
C1983      H1992   1.083       .  S
C1984      C1987   1.438       .  S
C1984      C1985   1.401       .  A
C1985      C1986   1.397       .  A
C1985      H1993   1.084       .  S
C1986      H1994   1.084       .  S
C1987      C1988   1.205       .  T
C1989      C1990   1.205   1_655  T
C1995      C2003   1.431       .  S
C1995      C1996   1.399       .  A
C1995      C2000   1.401       .  A
C1996      C1997   1.395       .  A
C1996      H2005   1.084       .  S
C1997      C1998   1.399       .  A
C1997      H2006   1.084       .  S
C1998      C2001   1.431   1_655  S
C1998      C1999   1.400       .  A
C1999      C2000   1.396       .  A
C1999      H2007   1.084       .  S
C2000      H2008   1.084       .  S
C2001      C2002   1.200       .  T
C2003      C2004   1.201       .  T
C2009      C2017   1.439       .  S
C2009      C2010   1.401       .  A
C2009      C2014   1.401       .  A
C2010      C2011   1.399       .  A
C2010      H2019   1.083       .  S
C2011      C2012   1.402       .  A
C2011      H2020   1.084       .  S
C2012      C2015   1.439       .  S
C2012      C2013   1.401       .  A
C2013      C2014   1.399       .  A
C2013      H2021   1.083       .  S
C2014      H2022   1.084       .  S
C2015      C2016   1.205       .  T
C2017      C2018   1.205       .  T
C2023      C2031   1.445       .  S
C2023      C2024   1.401       .  A
C2023      C2028   1.403       .  A
C2024      C2025   1.399       .  A
C2024      H2033   1.083       .  S
C2025      C2026   1.401       .  A
C2025      H2034   1.083       .  S
C2026      C2029   1.444       .  S
C2026      C2027   1.403       .  A
C2027      C2028   1.403       .  A
C2027      H2035   1.083       .  S
C2028      H2036   1.083       .  S
C2029      C2030   1.208       .  T
C2031      C2032   1.209       .  T
C2037      C2045   1.440       .  S
C2037      C2038   1.402       .  A
C2037      C2042   1.401       .  A
C2038      C2039   1.400       .  A
C2038      H2047   1.083       .  S
C2039      C2040   1.402       .  A
C2039      H2048   1.083       .  S
C2040      C2043   1.440       .  S
C2040      C2041   1.401       .  A
C2041      C2042   1.398       .  A
C2041      H2049   1.083       .  S
C2042      H2050   1.083       .  S
C2043      C2044   1.206       .  T
C2045      C2046   1.206       .  T
C2051      C2059   1.437       .  S
C2051      C2052   1.401       .  A
C2051      C2056   1.401       .  A
C2052      C2053   1.398       .  A
C2052      H2061   1.083       .  S
C2053      C2054   1.401       .  A
C2053      H2062   1.084       .  S
C2054      C2057   1.436       .  S
C2054      C2055   1.401       .  A
C2055      C2056   1.398       .  A
C2055      H2063   1.084       .  S
C2056      H2064   1.083       .  S
C2057      C2058   1.204       .  T
C2059      C2060   1.204       .  T
