geometry optimzed in LAMMPS
_audit_creation_date              2020-11-30 
_audit_creation_method            'lammps2cif' 
_symmetry_space_group_name_H-M    'P1' 
_symmetry_Int_Tables_number       1 
_symmetry_cell_setting            triclinic 
loop_ 
_symmetry_equiv_pos_as_xyz 
  x,y,z 
_cell_length_a                    38.39394708 
_cell_length_b                    39.601552280807454 
_cell_length_c                    67.87429607367233 
_cell_angle_alpha                 89.28993833404758 
_cell_angle_beta                  89.35034148460142 
_cell_angle_gamma                 89.54173000698097 
loop_ 
_atom_site_label 
_atom_site_type_symbol 
_atom_site_fract_x 
_atom_site_fract_y 
_atom_site_fract_z 
_atom_site_charge 
N1          N  0.37713292  0.30379561  0.36879142    -0.35700
N2          N  0.40420063  0.25484198  0.34073973    -0.56300
N3          N  0.37136995  0.20137554  0.36465593    -0.35700
N4          N  0.34594928  0.25089653  0.39261665    -0.56300
C5          C  0.40093934  0.32232578  0.35870725     0.27900
C6          C  0.37036220  0.32006832  0.38583708     0.27900
C7          C  0.38788514  0.18205720  0.35107832     0.27900
C8          C  0.35945806  0.18050028  0.37921654     0.27900
C9          C  0.41145278  0.28381698  0.33058752     0.36500
C10         C  0.40924414  0.22853360  0.32832379     0.36500
C11         C  0.33230440  0.27767320  0.40204917     0.36500
C12         C  0.33085214  0.22344747  0.40072882     0.36500
C13         C  0.40982775  0.35030070  0.36964790    -0.21000
C14         C  0.39027320  0.34900404  0.38672043    -0.21000
C15         C  0.38514595  0.14831538  0.35686023    -0.21000
C16         C  0.36782108  0.14745040  0.37463802    -0.21000
C17         C  0.42132297  0.27576126  0.31148348    -0.22000
C18         C  0.42054578  0.24089406  0.31017196    -0.22000
C19         C  0.30819012  0.26729732  0.41616615    -0.22000
C20         C  0.30741876  0.23278627  0.41540780    -0.22000
C21         C  0.41138818  0.31694070  0.33893518    -0.17400
C22         C  0.34488437  0.31068301  0.39993609    -0.17400
C23         C  0.33989295  0.18997115  0.39616160    -0.17400
C24         C  0.40462517  0.19357689  0.33335519    -0.17400
H25         H  0.42773317  0.37017340  0.36544949     0.15500
H26         H  0.39029998  0.36751429  0.39832001     0.15500
H27         H  0.39433026  0.12622242  0.34911240     0.15500
H28         H  0.36144548  0.12485062  0.38300607     0.15500
H29         H  0.42897161  0.29308112  0.29979560     0.13800
H30         H  0.42718427  0.22635775  0.29724857     0.13800
H31         H  0.29403853  0.28280617  0.42660291     0.13800
H32         H  0.29211219  0.21640750  0.42493383     0.13800
H33         H  0.36260441  0.28418839  0.36310020     0.27100
H34         H  0.36670666  0.22702842  0.36337566     0.27100
N35         N  0.11741116  0.20246721  0.37304843    -0.35700
N36         N  0.10737991  0.25436873  0.34287742    -0.56300
N37         N  0.11942954  0.30471946  0.37304185    -0.35700
N38         N  0.12911848  0.25288507  0.40236603    -0.56300
C39         C  0.12239806  0.18540968  0.35608365     0.27900
C40         C  0.13302148  0.18425895  0.38754090     0.27900
C41         C  0.12073342  0.32365668  0.35639370     0.27900
C42         C  0.13551624  0.32243543  0.38720610     0.27900
C43         C  0.09661329  0.22689519  0.33283751     0.36500
C44         C  0.09607670  0.28244961  0.33307479     0.36500
C45         C  0.12721851  0.22553370  0.41432970     0.36500
C46         C  0.13044388  0.28000564  0.41413308     0.36500
C47         C  0.14210284  0.15652694  0.35979376    -0.21000
C48         C  0.14853818  0.15565620  0.37969522    -0.21000
C49         C  0.13786875  0.35366919  0.35999311    -0.21000
C50         C  0.14745185  0.35275935  0.37940546    -0.21000
C51         C  0.07851689  0.23769919  0.31631101    -0.22000
C52         C  0.07855397  0.27278440  0.31635068    -0.22000
C53         C  0.12686532  0.23530494  0.43387942    -0.22000
C54         C  0.12900470  0.26993026  0.43375092    -0.22000
C55         C  0.10515792  0.19265013  0.33814687    -0.17400
C56         C  0.13224633  0.19221479  0.40777676    -0.17400
C57         C  0.13744029  0.31304850  0.40729926    -0.17400
C58         C  0.10326012  0.31636269  0.33876684    -0.17400
H59         H  0.14982364  0.13738386  0.34933409     0.15500
H60         H  0.16267353  0.13601596  0.38752691     0.15500
H61         H  0.14239879  0.37442772  0.34978889     0.15500
H62         H  0.16081747  0.37260834  0.38703058     0.15500
H63         H  0.06704805  0.22202492  0.30520738     0.13800
H64         H  0.06722607  0.28927709  0.30527635     0.13800
H65         H  0.12700996  0.21910018  0.44683841     0.13800
H66         H  0.13078776  0.28574273  0.44658793     0.13800
H67         H  0.10044210  0.22284596  0.37505197     0.27100
H68         H  0.10434112  0.28323244  0.37510189     0.27100
O69         O  0.18366217  0.44380902  0.45663463    -0.74400
O70         O  0.20870057  0.40404677  0.47641066    -0.53300
C71         C  0.18988027  0.41281086  0.46168540     0.79300
O72         O  0.30062940  0.05542185  0.44613380    -0.59000
O73         O  0.27960114  0.09498421  0.46740952    -0.52000
C74         C  0.29492409  0.08605053  0.45134924     0.71400
O75         O  0.30166925  0.44088414  0.44857092    -0.73500
O76         O  0.28015366  0.40262468  0.47085833    -0.54100
C77         C  0.29574124  0.41063818  0.45468415     0.77400
O78         O  0.17336113  0.05870893  0.45913549    -0.58700
O79         O  0.20565258  0.09696643  0.47557411    -0.51800
C80         C  0.18253806  0.08930617  0.46288079     0.74000
Zr81       Zr  0.19015615  0.50038344  0.47061084     2.54700
O82         O  0.15935086  0.50355035  0.43946225    -0.79200
O83         O  0.12832839  0.00002982  0.48353301    -0.92700
Zr84       Zr  0.29267842  0.49823196  0.45981516     2.64700
O85         O  0.28106045  0.49602089  0.42464747    -0.97600
O86         O  0.35335996  0.00293362  0.45490174    -0.79700
O87         O  0.24095825  0.46726339  0.46517243    -0.83000
O88         O  0.23934952  0.03215613  0.46455137    -2.17700
O89         O  0.19624921  0.05789917  0.54016003    -0.66400
O90         O  0.21917037  0.09669347  0.51862562    -0.51000
C91         C  0.20315787  0.08822030  0.53462864     0.72300
O92         O  0.32357675  0.44343814  0.52952191    -0.59300
O93         O  0.29267322  0.40446849  0.51284466    -0.51300
C94         C  0.31533126  0.41280262  0.52558991     0.74100
O95         O  0.32443687  0.05741770  0.52774442    -0.70700
O96         O  0.29294163  0.09596247  0.51012759    -0.49400
C97         C  0.31606017  0.08809431  0.52296114     0.75500
O98         O  0.19767278  0.44579928  0.54161742    -0.66100
O99         O  0.21968041  0.40594298  0.52080026    -0.53300
C100        C  0.20397308  0.41515515  0.53663708     0.73900
Zr101      Zr  0.20801730  0.50183080  0.52799685     2.77500
O102        O  0.21765895  0.49848681  0.56341329    -0.96800
O103        O  0.14536963  0.50692920  0.53331013    -0.77600
Zr104      Zr  0.31092440  0.50033943  0.51706374     2.70100
O105        O  0.32700265  0.99860936  0.55195617    -0.78900
O106        O  0.37003133  0.49976160  0.50373668    -0.98000
Zr107      Zr  0.24974155  0.43638781  0.49490765     2.21500
Zr108      Zr  0.24882358  0.06446968  0.49332592     2.11100
O109        O  0.25741681  0.03261465  0.52287912    -2.46600
O110        O  0.25933085  0.46908489  0.52340866    -0.78700
O111        O  0.19608706  0.03440241  0.49899564    -0.70900
O112        O  0.30245321  0.46635280  0.48901666    -2.31800
O113        O  0.19732596  0.46806629  0.49998411    -2.28000
O114        O  0.30100668  0.03268493  0.48848744    -0.72600
H115        H  0.23622948  0.04631182  0.45302158     0.79400
H116        H  0.32187099  0.45099027  0.48722558     0.80500
H117        H  0.26077793  0.04701167  0.53405146     0.82700
H118        H  0.17766679  0.45335982  0.50220244     0.80300
H119        H  0.36353791  0.51884648  0.45609362     0.43300
H120        H  0.37201017  0.02238169  0.49997764     0.42300
H121        H  0.35978660  0.49304303  0.54835205     0.42000
H122        H  0.23256143  0.01513355  0.56595950     0.39900
H123        H  0.13518134  0.02278880  0.52340272     0.43000
H124        H  0.11594220  0.50129835  0.47243852     0.37800
H125        H  0.17754841  0.49942942  0.42930306     0.43900
H126        H  0.25566019  0.00352785  0.42349601     0.40400
H127        H  0.19200242  0.01306091  0.56877392     0.45300
H128        H  0.12838022  0.51529280  0.49259104     0.44000
H129        H  0.30242393  0.50479155  0.41815405     0.44100
H130        H  0.38268673  0.00114199  0.51856063     0.44500
N131        N  0.40010218  0.30013698  0.60981500    -0.35700
N132        N  0.41378379  0.24657604  0.63721639    -0.56300
N133        N  0.39415903  0.19689073  0.60799749    -0.35700
N134        N  0.37974992  0.25009499  0.58083027    -0.56300
C135        C  0.40185455  0.31733137  0.62689061     0.27900
C136        C  0.38208103  0.31948801  0.59690827     0.27900
C137        C  0.39330914  0.17829281  0.62474955     0.27900
C138        C  0.37615395  0.17988566  0.59436558     0.27900
C139        C  0.42963739  0.27211477  0.64645462     0.36500
C140        C  0.42561705  0.21782288  0.64565764     0.36500
C141        C  0.37971818  0.27832371  0.56956760     0.36500
C142        C  0.37782241  0.22385449  0.56837067     0.36500
C143        C  0.38501383  0.34823908  0.62475084    -0.21000
C144        C  0.37250726  0.34961746  0.60577378    -0.21000
C145        C  0.37471943  0.14893452  0.62178347    -0.21000
C146        C  0.36380970  0.14995692  0.60251765    -0.21000
C147        C  0.45205428  0.25950927  0.66065743    -0.22000
C148        C  0.44931834  0.22497644  0.66024141    -0.22000
C149        C  0.37788532  0.27003268  0.54980506    -0.22000
C150        C  0.37683176  0.23542021  0.54904807    -0.22000
C151        C  0.42039481  0.30636039  0.64375548    -0.17400
C152        C  0.37592246  0.31121774  0.57705215    -0.17400
C153        C  0.37245163  0.19013040  0.57452478    -0.17400
C154        C  0.41216307  0.18567361  0.64181109    -0.17400
H155        H  0.38234398  0.36784783  0.63564437     0.15500
H156        H  0.35831709  0.37053994  0.59919672     0.15500
H157        H  0.37018536  0.12859453  0.63227692     0.15500
H158        H  0.34895042  0.13069525  0.59527331     0.15500
H159        H  0.46737245  0.27371666  0.67089231     0.13800
H160        H  0.46237118  0.20722348  0.66996280     0.13800
H161        H  0.37617862  0.28719269  0.53730918     0.13800
H162        H  0.37418431  0.22055439  0.53588343     0.13800
H163        H  0.41372489  0.27810779  0.60640358     0.27100
H164        H  0.40997672  0.21772119  0.60538404     0.27100
N165        N  0.14631207  0.30106599  0.62673205    -0.35700
N166        N  0.13154996  0.24850294  0.65515827    -0.56300
N167        N  0.14633352  0.19740249  0.62589351    -0.35700
N168        N  0.15927507  0.24997386  0.59681118    -0.56300
C169        C  0.12997185  0.31927401  0.64087196     0.27900
C170        C  0.14633631  0.32000153  0.61005199     0.27900
C171        C  0.13017956  0.17849775  0.63990278     0.27900
C172        C  0.14689927  0.17925564  0.60915709     0.27900
C173        C  0.13064344  0.27533729  0.66724041     0.36500
C174        C  0.13045735  0.22065563  0.66679748     0.36500
C175        C  0.17183139  0.27753731  0.58735326     0.36500
C176        C  0.17168501  0.22305033  0.58685138     0.36500
C177        C  0.11979633  0.35033957  0.63309162    -0.21000
C178        C  0.13036661  0.35087348  0.61363288    -0.21000
C179        C  0.12070570  0.14777609  0.63200703    -0.21000
C180        C  0.13154560  0.14816898  0.61260246    -0.21000
C181        C  0.12951657  0.26450680  0.68673007    -0.22000
C182        C  0.12929933  0.22979867  0.68644644    -0.22000
C183        C  0.19202763  0.26812135  0.57123292    -0.22000
C184        C  0.19183240  0.23350203  0.57088072    -0.22000
C185        C  0.12539336  0.30902690  0.66077206    -0.17400
C186        C  0.16301848  0.31106456  0.59220703    -0.17400
C187        C  0.16319088  0.18926115  0.59131723    -0.17400
C188        C  0.12535404  0.18760441  0.65983192    -0.17400
H189        H  0.10655154  0.37068632  0.64068845     0.15500
H190        H  0.12695207  0.37168359  0.60332680     0.15500
H191        H  0.10782604  0.12699960  0.63951415     0.15500
H192        H  0.12864587  0.12785137  0.60224100     0.15500
H193        H  0.12744324  0.28001031  0.69972102     0.13800
H194        H  0.12709871  0.21320851  0.69918539     0.13800
H195        H  0.20516693  0.28448585  0.56069306     0.13800
H196        H  0.20481524  0.21783599  0.56004984     0.13800
H197        H  0.16018067  0.27867250  0.62879547     0.27100
H198        H  0.15964955  0.21974159  0.62814464     0.27100
O199        O  0.44578719  0.07942847  0.27006950    -0.74400
O200        O  0.47056074  0.05060433  0.29569604    -0.53300
C201        C  0.45165406  0.07528224  0.28853234     0.79300
O202        O  0.42691820  0.44376985  0.21171211    -0.59000
O203        O  0.45772188  0.46855574  0.18635280    -0.52000
C204        C  0.43157624  0.45128544  0.19342958     0.71400
O205        O  0.44568158  0.43074545  0.27488162    -0.73500
O206        O  0.47309185  0.46219845  0.29814863    -0.54100
C207        C  0.45505466  0.43617565  0.29263990     0.77400
O208        O  0.43832825  0.06559985  0.20517675    -0.58700
O209        O  0.47209082  0.03905947  0.18217377    -0.51800
C210        C  0.44558767  0.05758608  0.18721139     0.74000
Zr211      Zr  0.45991781  0.05471813  0.23855113     2.54700
O212        O  0.39668410  0.05185463  0.24051793    -0.79200
O213        O  0.46415676  0.11567378  0.23423630    -0.92700
Zr214      Zr  0.45464080  0.45616484  0.24263177     2.64700
O215        O  0.39244219  0.45920398  0.24994399    -0.97600
O216        O  0.45636967  0.39489722  0.23982423    -0.79700
O217        O  0.45671229  0.00704406  0.26051882    -0.83000
O218        O  0.45950351  0.00423826  0.22112192    -2.17700
O219        O  0.08966458  0.05894077  0.20720501    -0.66400
O220        O  0.05673448  0.03224203  0.18421879    -0.51000
C221        C  0.08363573  0.04932119  0.18957904     0.72300
O222        O  0.07618069  0.43322669  0.27540233    -0.59300
O223        O  0.04839129  0.46360609  0.29939397    -0.51300
C224        C  0.06835916  0.43880222  0.29361115     0.74100
O225        O  0.08426841  0.43812966  0.20878878    -0.70700
O226        O  0.04896987  0.45997494  0.18490909    -0.49400
C227        C  0.07597822  0.44275740  0.19048328     0.75500
O228        O  0.07615931  0.07839512  0.27048402    -0.66100
O229        O  0.04990636  0.05059329  0.29606558    -0.53300
C230        C  0.06948178  0.07486462  0.28895226     0.73900
Zr231      Zr  0.06288531  0.05202105  0.23951784     2.77500
O232        O  0.12554646  0.04939967  0.24459577    -0.96800
O233        O  0.05822297  0.11224367  0.23208964    -0.77600
Zr234      Zr  0.06321980  0.45360366  0.24218793     2.70100
O235        O  0.12610721  0.46031045  0.24377246    -0.78900
O236        O  0.06376638  0.39223710  0.24283332    -0.98000
Zr237      Zr  0.01128724  0.00648707  0.28119585     2.21500
Zr238      Zr  0.00987348  0.00169690  0.20210228     2.11100
O239        O  0.06105181  0.00140525  0.22173088    -2.46600
O240        O  0.06292297  0.00357061  0.26075403    -0.78700
O241        O  0.01195284  0.05362735  0.21988276    -0.70900
O242        O  0.01252572  0.45483648  0.26195550    -2.31800
O243        O  0.01219805  0.05448925  0.25925980    -2.28000
O244        O  0.01163636  0.44921859  0.22316069    -0.72600
H245        H  0.43873165  0.00507422  0.21329652     0.79400
H246        H  0.01374166  0.43485411  0.27012567     0.80500
H247        H  0.08197751  0.99940978  0.21387574     0.82700
H248        H  0.01261150  0.07525464  0.26651851     0.80300
H249        H  0.47196990  0.39046674  0.22841983     0.43300
H250        H  0.05452097  0.38572671  0.22988115     0.42300
H251        H  0.13580889  0.43928998  0.23808684     0.42000
H252        H  0.13301457  0.02788555  0.23852298     0.39900
H253        H  0.05151604  0.11364321  0.21805336     0.43000
H254        H  0.48156195  0.12267331  0.24400455     0.37800
H255        H  0.38826068  0.07026300  0.23174816     0.43900
H256        H  0.39021300  0.47547873  0.26085283     0.40400
H257        H  0.13537609  0.06715505  0.23582553     0.45300
H258        H  0.44172724  0.12464320  0.23936695     0.44000
H259        H  0.38211429  0.47101601  0.23845231     0.44100
H260        H  0.08877715  0.38601671  0.24233587     0.44500
O261        O  0.46066017  0.30198898  0.94884045    -0.74400
O262        O  0.42026633  0.28127724  0.97019965    -0.53300
C263        C  0.42876609  0.29608887  0.95398707     0.79300
O264        O  0.06441202  0.18701804  0.93918920    -0.59000
O265        O  0.10791895  0.21083628  0.95671000    -0.52000
C266        C  0.09676642  0.19298301  0.94245173     0.71400
O267        O  0.45579366  0.19323565  0.94090084    -0.73500
O268        O  0.41788860  0.21496957  0.96354431    -0.54100
C269        C  0.42487031  0.20091996  0.94697773     0.77400
O270        O  0.06287389  0.31600391  0.94555147    -0.58700
O271        O  0.10713199  0.28424188  0.95852236    -0.51800
C272        C  0.09478894  0.30617026  0.94609662     0.74000
Zr273      Zr  0.00772289  0.30261812  0.96120099     2.54700
O274        O  0.00215620  0.32994304  0.92908509    -0.79200
O275        O  0.00687974  0.35927706  0.97473007    -0.92700
Zr276      Zr  0.00705716  0.20192934  0.95303061     2.64700
O277        O  0.51704487  0.21553177  0.91755593    -0.97600
O278        O  0.99771044  0.14119141  0.95467893    -0.79700
O279        O  0.48421589  0.24928640  0.95892154    -0.83000
O280        O  0.04029852  0.25200155  0.95468697    -2.17700
O281        O  0.07831947  0.29417368  0.02841900    -0.66400
O282        O  0.11577050  0.27147772  0.00574555    -0.51000
C283        C  0.10905367  0.28654984  0.02207928     0.72300
O284        O  0.45904517  0.16351485  0.01978101    -0.59300
O285        O  0.41922100  0.19721930  0.00460682    -0.51300
C286        C  0.42745711  0.17251747  0.01593740     0.74100
O287        O  0.07443416  0.16861588  0.01645039    -0.70700
O288        O  0.11373791  0.20060674  0.99918720    -0.49400
C289        C  0.10572930  0.17632968  0.01131554     0.75500
O290        O  0.46545937  0.29296009  0.03374827    -0.66100
O291        O  0.42254586  0.27065048  0.01499045    -0.53300
C292        C  0.43331419  0.28846411  0.02944972     0.73900
Zr293      Zr  0.01822757  0.28722706  0.01843455     2.77500
O294        O  0.01403164  0.27236758  0.05324500    -0.96800
O295        O  0.02846684  0.34664952  0.02496049    -0.77600
Zr296      Zr  0.01527307  0.18733895  0.00999394     2.70100
O297        O  0.02083051  0.16983698  0.04433264    -0.78900
O298        O  0.01306073  0.12903883  0.99934164    -0.98000
Zr299      Zr  0.45274133  0.24005391  0.98872879     2.21500
Zr300      Zr  0.07928420  0.24413140  0.98176473     2.11100
O301        O  0.04969188  0.23653280  0.01257628    -2.46600
O302        O  0.48731178  0.22773508  0.01670492    -0.78700
O303        O  0.04761917  0.29547000  0.98765236    -0.70900
O304        O  0.48274415  0.18870707  0.98140098    -2.31800
O305        O  0.48571871  0.28946163  0.99397060    -2.28000
O306        O  0.04573521  0.19388096  0.97960873    -0.72600
H307        H  0.05282968  0.25395744  0.94232920     0.79400
H308        H  0.46676015  0.17036669  0.97943027     0.80500
H309        H  0.06592908  0.23267877  0.02313475     0.82700
H310        H  0.47072164  0.30866302  0.99647501     0.80300
H311        H  0.53003208  0.12847100  0.94817154     0.43300
H312        H  0.03276422  0.12676368  0.98990789     0.42300
H313        H  0.52753013  0.17473971  0.05034504     0.42000
H314        H  0.02280145  0.24883163  0.05403804     0.39900
H315        H  0.00832252  0.35871713  0.01911690     0.43000
H316        H  0.49727516  0.36406744  0.97614947     0.37800
H317        H  0.52914950  0.35895317  0.94271869     0.43900
H318        H  0.02361139  0.21448337  0.91237544     0.40400
H319        H  0.03211573  0.28599909  0.05961863     0.45300
H320        H  0.02571295  0.37129723  0.96752967     0.44000
H321        H  0.01608043  0.17559240  0.91409584     0.44100
H322        H  0.02033988  0.11579040  0.01106902     0.44500
N323        N  0.28677809  0.30293800  0.83336686    -0.35700
N324        N  0.23922958  0.29768139  0.86580022    -0.56300
N325        N  0.19118135  0.33533848  0.84351179    -0.35700
N326        N  0.23920085  0.33742002  0.80910067    -0.56300
C327        C  0.30027779  0.27474285  0.84198285     0.27900
C328        C  0.30804223  0.31237239  0.81833123     0.27900
C329        C  0.17356699  0.32116807  0.85875008     0.27900
C330        C  0.17272975  0.32946830  0.82708730     0.27900
C331        C  0.26218434  0.27398209  0.87165011     0.36500
C332        C  0.21841826  0.30568052  0.88121439     0.36500
C333        C  0.26794984  0.35253687  0.80182399     0.36500
C334        C  0.21138439  0.35536522  0.80296400     0.36500
C335        C  0.33172240  0.26727233  0.83249307    -0.21000
C336        C  0.33679475  0.29124561  0.81785412    -0.21000
C337        C  0.14548196  0.30329415  0.85157676    -0.21000
C338        C  0.14409417  0.30984403  0.83164911    -0.21000
C339        C  0.25689774  0.26727993  0.89153527    -0.22000
C340        C  0.22926902  0.28731857  0.89764973    -0.22000
C341        C  0.25818699  0.38020925  0.79029407    -0.22000
C342        C  0.22201799  0.38162453  0.79075042    -0.22000
C343        C  0.28533458  0.25683772  0.85854976    -0.17400
C344        C  0.30220828  0.34028558  0.80544255    -0.17400
C345        C  0.17734185  0.34794108  0.80950492    -0.17400
C346        C  0.18531530  0.32138613  0.87848332    -0.17400
H347        H  0.35015667  0.24750862  0.83591776     0.15500
H348        H  0.35882541  0.29261579  0.80779484     0.15500
H349        H  0.12745304  0.28755016  0.85981983     0.15500
H350        H  0.12407373  0.30174136  0.82169177     0.15500
H351        H  0.27086565  0.24935370  0.90061121     0.13800
H352        H  0.21659311  0.28529915  0.91189072     0.13800
H353        H  0.27518939  0.39761075  0.78251197     0.13800
H354        H  0.20567421  0.40050022  0.78371494     0.13800
H355        H  0.26499506  0.31647802  0.83773005     0.27100
H356        H  0.21249408  0.35141165  0.84469334     0.27100
N357        N  0.23778717  0.19260159  0.86471945    -0.35700
N358        N  0.29356288  0.19657715  0.82999522    -0.56300
N359        N  0.24034277  0.16001331  0.80863208    -0.35700
N360        N  0.18988081  0.15727874  0.84033264    -0.56300
C361        C  0.26890488  0.20020726  0.87247762     0.27900
C362        C  0.22162099  0.17150703  0.87760973     0.27900
C363        C  0.26808655  0.16028034  0.79608080     0.27900
C364        C  0.21105877  0.15592536  0.79786634     0.27900
C365        C  0.30930766  0.20104400  0.84740370     0.36500
C366        C  0.31225621  0.17253664  0.82067930     0.36500
C367        C  0.17170458  0.15584278  0.85743496     0.36500
C368        C  0.16749235  0.15094494  0.82575108     0.36500
C369        C  0.27341334  0.18317700  0.89014887    -0.21000
C370        C  0.24265673  0.16610680  0.89386206    -0.21000
C371        C  0.25657346  0.15666112  0.77699356    -0.21000
C372        C  0.22063011  0.15460185  0.77805961    -0.21000
C373        C  0.33728793  0.17920348  0.84950868    -0.22000
C374        C  0.34014645  0.16199321  0.83205926    -0.22000
C375        C  0.13727437  0.14826421  0.85387203    -0.22000
C376        C  0.13469541  0.14453000  0.83382508    -0.22000
C377        C  0.29398508  0.21974967  0.86251387    -0.17400
C378        C  0.18664540  0.16094010  0.87601472    -0.17400
C379        C  0.17641504  0.15052385  0.80537676    -0.17400
C380        C  0.30344373  0.15986457  0.80216126    -0.17400
H381        H  0.29614734  0.18351756  0.89939222     0.15500
H382        H  0.23656273  0.15101354  0.90682814     0.15500
H383        H  0.27245784  0.15509780  0.76375833     0.15500
H384        H  0.20359636  0.15106456  0.76567290     0.15500
H385        H  0.35318983  0.17545567  0.86240683     0.13800
H386        H  0.35908123  0.14248399  0.82863065     0.13800
H387        H  0.11624417  0.14546067  0.86448238     0.13800
H388        H  0.11117296  0.13790933  0.82622199     0.13800
H389        H  0.22772043  0.20311560  0.85177785     0.27100
H390        H  0.24257360  0.15923234  0.82385641     0.27100
O391        O  0.44682442  0.43790273  0.69683615    -0.74400
O392        O  0.46793791  0.39923082  0.71894153    -0.53300
C393        C  0.45420638  0.40743563  0.70230050     0.79300
O394        O  0.07079138  0.05462158  0.70723179    -0.59000
O395        O  0.03400849  0.09365229  0.72072976    -0.52000
C396        C  0.06005798  0.08535169  0.70980706     0.71400
O397        O  0.06887662  0.44062013  0.70666287    -0.73500
O398        O  0.03583694  0.40194155  0.72328493    -0.54100
C399        C  0.06005167  0.40998283  0.71094390     0.77400
O400        O  0.43853860  0.05021953  0.69447565    -0.58700
O401        O  0.46103441  0.09141006  0.71377599    -0.51800
C402        C  0.44489606  0.08118420  0.69852243     0.74000
Zr403      Zr  0.44740244  0.49480593  0.71029155     2.54700
O404        O  0.44215914  0.49544415  0.67453916    -0.79200
O405        O  0.38436929  0.48862196  0.71224199    -0.92700
Zr406      Zr  0.05139711  0.49831010  0.71559807     2.64700
O407        O  0.05538256  0.49953487  0.67976948    -0.97600
O408        O  0.11410359  0.49662314  0.72007118    -0.79700
O409        O  0.00146035  0.46464483  0.71211690    -0.83000
O410        O  0.00190642  0.02852269  0.71190263    -2.17700
O411        O  0.40975146  0.05177455  0.76883806    -0.66400
O412        O  0.44287066  0.09377794  0.75555924    -0.51000
C413        C  0.41487403  0.08289914  0.76428249     0.72300
O414        O  0.05914707  0.44636288  0.78098782    -0.59300
O415        O  0.03299927  0.40352991  0.76486765    -0.51300
C416        C  0.05576910  0.41492247  0.77690744     0.74100
O417        O  0.06224241  0.05585563  0.77534050    -0.70700
O418        O  0.03386889  0.09734806  0.75856193    -0.49400
C419        C  0.05956087  0.08644142  0.76904282     0.75500
O420        O  0.41315036  0.44330851  0.77582025    -0.66100
O421        O  0.44742826  0.40182310  0.76246953    -0.53300
C422        C  0.42044227  0.41235133  0.77232646     0.73900
Zr423      Zr  0.43504593  0.49866091  0.76796077     2.77500
O424        O  0.43676260  0.50572021  0.80347940    -0.96800
O425        O  0.37229987  0.49229859  0.77152106    -0.77600
Zr426      Zr  0.03329790  0.50137885  0.77369476     2.70100
O427        O  0.00816094  0.50761081  0.80653383    -0.78900
O428        O  0.08311212  0.50030859  0.79570067    -0.98000
Zr429      Zr  0.99377845  0.43368204  0.74222155     2.21500
Zr430      Zr  0.99202389  0.06321444  0.74022568     2.11100
O431        O  0.98302665  0.03408357  0.77090666    -2.46600
O432        O  0.98378541  0.46680969  0.77089366    -0.78700
O433        O  0.44139728  0.02868565  0.73703667    -0.70900
O434        O  0.04450236  0.46764546  0.74545702    -2.31800
O435        O  0.44176080  0.46353956  0.73998464    -2.28000
O436        O  0.04375451  0.03101455  0.74569374    -0.72600
H437        H  0.00539273  0.04192098  0.70006854     0.79400
H438        H  0.06552044  0.45426288  0.74651750     0.80500
H439        H  0.97888058  0.04972289  0.78150880     0.82700
H440        H  0.42210958  0.44872613  0.73860810     0.80300
H441        H  0.12377600  0.49488152  0.70653348     0.43300
H442        H  0.10377416  0.50339753  0.78703878     0.42300
H443        H  0.00622383  0.48418265  0.81167051     0.42000
H444        H  0.41408512  0.51633895  0.80687305     0.39900
H445        H  0.36491791  0.48247830  0.75889452     0.43000
H446        H  0.37898971  0.47177486  0.70207492     0.37800
H447        H  0.41732930  0.50074215  0.67204253     0.43900
H448        H  0.07521975  0.48443744  0.67646112     0.40400
H449        H  0.43517882  0.48247970  0.80894367     0.45300
H450        H  0.37501424  0.51018750  0.70689445     0.44000
H451        H  0.03453375  0.48722058  0.67545250     0.44100
H452        H  0.08143502  0.52130563  0.80343768     0.44500
N453        N  0.26179208  0.10255389  0.07080893    -0.35700
N454        N  0.20843322  0.08926591  0.09943445    -0.56300
N455        N  0.26300968  0.07724919  0.12909975    -0.35700
N456        N  0.31630812  0.09231824  0.09975424    -0.56300
C457        C  0.23381974  0.10191565  0.05896410     0.27900
C458        C  0.29019017  0.10026891  0.05901832     0.27900
C459        C  0.23404663  0.07542432  0.14075333     0.27900
C460        C  0.29144801  0.07781404  0.14097809     0.27900
C461        C  0.18740554  0.09763236  0.08420359     0.36500
C462        C  0.18757662  0.07970591  0.11459125     0.36500
C463        C  0.33574108  0.10420147  0.08456097     0.36500
C464        C  0.33692165  0.09257702  0.11568407     0.36500
C465        C  0.24441852  0.09869085  0.03950559    -0.21000
C466        C  0.28014643  0.09731408  0.03954869    -0.21000
C467        C  0.24442707  0.07452270  0.16030377    -0.21000
C468        C  0.28033990  0.07531616  0.16041125    -0.21000
C469        C  0.15296468  0.09303838  0.08951397    -0.22000
C470        C  0.15310932  0.08020094  0.10838055    -0.22000
C471        C  0.36883545  0.11221825  0.09084304    -0.22000
C472        C  0.36969457  0.10456412  0.11052460    -0.22000
C473        C  0.19910000  0.10678240  0.06511204    -0.17400
C474        C  0.32446162  0.10674310  0.06493423    -0.17400
C475        C  0.32700826  0.08209918  0.13490192    -0.17400
C476        C  0.19846905  0.07425575  0.13443517    -0.17400
H477        H  0.22808744  0.09806764  0.02662203     0.15500
H478        H  0.29692284  0.09607489  0.02664716     0.15500
H479        H  0.22785821  0.07348873  0.17329234     0.15500
H480        H  0.29632364  0.07499058  0.17343299     0.15500
H481        H  0.13018739  0.09711864  0.08053040     0.13800
H482        H  0.13005627  0.07320087  0.11671709     0.13800
H483        H  0.39026387  0.12231668  0.08218537     0.13800
H484        H  0.39182474  0.10800041  0.12000987     0.13800
H485        H  0.26164578  0.11013680  0.08541877     0.27100
H486        H  0.26323572  0.07590062  0.11388042     0.27100
N487        N  0.26848206  0.35278173  0.08228504    -0.35700
N488        N  0.31554153  0.38350783  0.10969858    -0.56300
N489        N  0.25569531  0.40443739  0.13407792    -0.35700
N490        N  0.20818718  0.37471900  0.10613480    -0.56300
C491        C  0.29696214  0.36039910  0.07131347     0.27900
C492        C  0.24119697  0.35467370  0.06999989     0.27900
C493        C  0.28216900  0.40987746  0.14684185     0.27900
C494        C  0.22501245  0.40803083  0.14418624     0.27900
C495        C  0.33938511  0.37167426  0.09660944     0.36500
C496        C  0.33360962  0.39654442  0.12467013     0.36500
C497        C  0.19092099  0.35976028  0.09132500     0.36500
C498        C  0.18381815  0.38809498  0.11838009     0.36500
C499        C  0.28776709  0.36878142  0.05226182    -0.21000
C500        C  0.25204403  0.36690380  0.05172664    -0.21000
C501        C  0.26794955  0.41749217  0.16514928    -0.21000
C502        C  0.23221679  0.41675225  0.16342806    -0.21000
C503        C  0.37274232  0.37741084  0.10300274    -0.22000
C504        C  0.36917108  0.39402382  0.12050972    -0.22000
C505        C  0.15538539  0.36500299  0.09375824    -0.22000
C506        C  0.15086828  0.38227725  0.11103078    -0.22000
C507        C  0.33110366  0.35881970  0.07810917    -0.17400
C508        C  0.20740509  0.34378741  0.07500469    -0.17400
C509        C  0.19059320  0.40344006  0.13675096    -0.17400
C510        C  0.31888104  0.40841941  0.14264066    -0.17400
H511        H  0.30491246  0.37620876  0.04023584     0.15500
H512        H  0.23598798  0.37252001  0.03907795     0.15500
H513        H  0.28188629  0.42296602  0.17848832     0.15500
H514        H  0.21368202  0.42161061  0.17520014     0.15500
H515        H  0.39699864  0.37160768  0.09545383     0.13800
H516        H  0.39062402  0.40282483  0.12920388     0.13800
H517        H  0.13475676  0.35789149  0.08395135     0.13800
H518        H  0.12603905  0.38965911  0.11740195     0.13800
H519        H  0.26813239  0.34318343  0.09669476     0.27100
H520        H  0.25835496  0.40055287  0.11904721     0.27100
C521        C  0.09040372  0.10803855  0.77355974    -0.04400
C522        C  0.12372978  0.09229114  0.77337069    -0.01500
C523        C  0.15139794  0.10602093  0.78383856     0.03400
C524        C  0.14863986  0.13871089  0.79160052    -0.04400
C525        C  0.11748809  0.15747864  0.78844112    -0.01500
C526        C  0.08775212  0.14153077  0.78048123     0.03400
C527        C  0.12977082  0.06102889  0.76293065     0.38100
C528        C  0.11561553  0.19250127  0.79435084     0.38100
C529        C  0.05440290  0.15877719  0.78072131     0.36500
C530        C  0.18139145  0.08482002  0.78814055     0.36500
N531        N  0.02786707  0.17280426  0.78118427    -0.38300
N532        N  0.20467801  0.06717880  0.79168309    -0.38300
N533        N  0.11427338  0.22056928  0.79887872    -0.37800
N534        N  0.13543544  0.03605581  0.75482353    -0.37800
C535        C  0.33119661  0.14250027  0.79001536    -0.04400
C536        C  0.32660674  0.10876931  0.78439539    -0.01500
C537        C  0.35157452  0.09268799  0.77247571     0.03400
C538        C  0.38546430  0.10634355  0.77007117    -0.04400
C539        C  0.39053871  0.14025000  0.77568686    -0.01500
C540        C  0.36304253  0.15862962  0.78493568     0.03400
C541        C  0.29872257  0.08878661  0.79298451     0.38100
C542        C  0.42369074  0.15644126  0.77207948     0.38100
C543        C  0.36822781  0.19365126  0.79005933     0.36500
C544        C  0.34102378  0.06317009  0.76167209     0.36500
N545        N  0.37259794  0.22149487  0.79430322    -0.38300
N546        N  0.33146715  0.04047959  0.75268048    -0.38300
N547        N  0.44992384  0.16984201  0.76911256    -0.37800
N548        N  0.27755973  0.07225922  0.80046044    -0.37800
C549        C  0.14557524  0.36416965  0.80080730    -0.04400
C550        C  0.13307408  0.35437743  0.78227385    -0.01500
C551        C  0.10134050  0.36796524  0.77504719     0.03400
C552        C  0.08210570  0.39186095  0.78623499    -0.04400
C553        C  0.09313293  0.39890746  0.80555878    -0.01500
C554        C  0.12514996  0.38629396  0.81248450     0.03400
C555        C  0.15281638  0.33020423  0.77067294     0.38100
C556        C  0.07096698  0.41858263  0.81863991     0.38100
C557        C  0.13747209  0.39691185  0.83157588     0.36500
C558        C  0.08849231  0.35654162  0.75634226     0.36500
N559        N  0.14732565  0.40529033  0.84679494    -0.38300
N560        N  0.07851083  0.34606424  0.74163603    -0.38300
N561        N  0.05325499  0.43390777  0.82921523    -0.37800
N562        N  0.16856375  0.31100303  0.76135567    -0.37800
C563        C  0.33354215  0.35712749  0.79635068    -0.04400
C564        C  0.35889051  0.37116091  0.80877158    -0.01500
C565        C  0.38970072  0.38506090  0.80073602     0.03400
C566        C  0.39406546  0.38835375  0.78012845    -0.04400
C567        C  0.36748653  0.37669983  0.76769503    -0.01500
C568        C  0.33871271  0.35892326  0.77570374     0.03400
C569        C  0.35220032  0.37345376  0.82980945     0.38100
C570        C  0.36731762  0.38672864  0.74707120     0.38100
C571        C  0.31422745  0.34308432  0.76266781     0.36500
C572        C  0.41602794  0.39804840  0.81375939     0.36500
N573        N  0.29473756  0.33039576  0.75224716    -0.38300
N574        N  0.43693073  0.40834988  0.82421320    -0.38300
N575        N  0.36651604  0.39556548  0.73076142    -0.37800
N576        N  0.34657081  0.37580079  0.84652427    -0.37800
C577        C  0.13379929  0.15676156  0.02164996    -0.04400
C578        C  0.16055878  0.17405266  0.03127659    -0.01500
C579        C  0.17892737  0.15835793  0.04674687     0.03400
C580        C  0.17497213  0.12354500  0.05073148    -0.04400
C581        C  0.15116244  0.10497339  0.03960805    -0.01500
C582        C  0.12999502  0.12163438  0.02549967     0.05000
C583        C  0.17081766  0.20736293  0.02481323     0.38100
C584        C  0.14771942  0.06899447  0.04317478     0.38100
C585        C  0.10510451  0.10225231  0.01451996     0.36500
C586        C  0.20008571  0.17875650  0.05950547     0.36500
N587        N  0.08556301  0.08630769  0.00580262    -0.38300
N588        N  0.21583018  0.19548306  0.06999302    -0.38300
N589        N  0.14481914  0.04035658  0.04629428    -0.37800
N590        N  0.18110762  0.23313180  0.01929606    -0.37800
C591        C  0.39849423  0.15373129  0.02568597    -0.04400
C592        C  0.36662448  0.17042943  0.03045548    -0.01500
C593        C  0.34270832  0.15486766  0.04332981     0.03400
C594        C  0.34863491  0.12153870  0.05004349    -0.04400
C595        C  0.37792715  0.10328626  0.04332809    -0.01500
C596        C  0.40299403  0.11937119  0.03130432     0.03400
C597        C  0.35799053  0.20379040  0.02265234     0.38100
C598        C  0.38278521  0.06829225  0.04934624     0.38100
C599        C  0.43274680  0.10000040  0.02427900     0.36500
C600        C  0.31285268  0.17398207  0.05056329     0.36500
N601        N  0.45634050  0.08435855  0.01866715    -0.38300
N602        N  0.28932584  0.18947624  0.05637799    -0.38300
N603        N  0.38686917  0.04042782  0.05417613    -0.37800
N604        N  0.35042036  0.23016754  0.01643675    -0.37800
C605        C  0.13822734  0.29449113  0.03539993    -0.04400
C606        C  0.17064258  0.30618072  0.02825002    -0.01500
C607        C  0.19681237  0.31404697  0.04173808     0.03400
C608        C  0.18755534  0.31979280  0.06175143    -0.04400
C609        C  0.15933605  0.30018754  0.06905671    -0.01500
C610        C  0.13497750  0.28711344  0.05579730     0.03400
C611        C  0.17894194  0.30615840  0.00737335     0.38100
C612        C  0.15672799  0.29107099  0.08980313     0.38100
C613        C  0.10888342  0.26342005  0.06285321     0.36500
C614        C  0.23221527  0.30454527  0.03636943     0.36500
N615        N  0.08895096  0.24369985  0.06852211    -0.38300
N616        N  0.26015988  0.29631956  0.03184538    -0.38300
N617        N  0.15408643  0.28390945  0.10633603    -0.37800
N618        N  0.18638592  0.30493120  0.99083905    -0.37800
C619        C  0.40710002  0.30639965  0.04180204    -0.04400
C620        C  0.38620569  0.28846544  0.05549278    -0.01500
C621        C  0.36127209  0.30577203  0.06709714     0.03400
C622        C  0.35809183  0.34134575  0.06575829    -0.04400
C623        C  0.38021787  0.35947326  0.05278249    -0.01500
C624        C  0.40425886  0.34201240  0.04061620     0.03400
C625        C  0.39172082  0.25251751  0.05850821     0.38100
C626        C  0.37853096  0.39604141  0.05211214     0.38100
C627        C  0.42597785  0.36070196  0.02674166     0.36500
C628        C  0.33907204  0.28693455  0.08066535     0.36500
N629        N  0.44324568  0.37559826  0.01563848    -0.38300
N630        N  0.32132183  0.27187643  0.09144048    -0.38300
N631        N  0.37753740  0.42525327  0.05163829    -0.37800
N632        N  0.39637094  0.22396819  0.06133031    -0.37800
C633        C  0.11693580  0.31779144  0.92919989    -0.04400
C634        C  0.10387877  0.31494481  0.90989797    -0.01500
C635        C  0.12396750  0.32577368  0.89379443     0.03400
C636        C  0.16044286  0.32812845  0.89574388    -0.04400
C637        C  0.17222001  0.33698994  0.91477728    -0.01500
C638        C  0.14983599  0.33289095  0.93147003     0.03400
C639        C  0.07038607  0.29984216  0.90603949     0.38100
C640        C  0.20568599  0.35314616  0.91689597     0.38100
C641        C  0.15917365  0.34666619  0.95029570     0.36500
C642        C  0.10584589  0.34311282  0.87796642     0.36500
N643        N  0.16617279  0.35920610  0.96502003    -0.38300
N644        N  0.09077737  0.35710139  0.86560371    -0.38300
N645        N  0.23236143  0.36615683  0.91855570    -0.37800
N646        N  0.04405018  0.28727575  0.90265123    -0.37800
C647        C  0.39992894  0.30243908  0.93969322    -0.04400
C648        C  0.36450250  0.30116980  0.94604516    -0.01500
C649        C  0.33876134  0.29235248  0.93235598     0.03400
C650        C  0.34951682  0.27862483  0.91418017    -0.04400
C651        C  0.37886063  0.29549532  0.90625627    -0.01500
C652        C  0.40616959  0.30403206  0.91903005     0.03400
C653        C  0.35453800  0.30830916  0.96623381     0.38100
C654        C  0.37992008  0.30493119  0.88563135     0.38100
C655        C  0.43968573  0.31354517  0.91083139     0.36500
C656        C  0.30214807  0.29714640  0.93670008     0.36500
N657        N  0.46640488  0.32107731  0.90412925    -0.38300
N658        N  0.27293252  0.30140463  0.94033140    -0.38300
N659        N  0.38087823  0.31279821  0.86915860    -0.37800
N660        N  0.34657388  0.31371206  0.98239509    -0.37800
C661        C  0.12272928  0.18127501  0.92752830    -0.04400
C662        C  0.12153562  0.14861587  0.91913345    -0.01500
C663        C  0.14381750  0.14042880  0.90297766     0.03400
C664        C  0.16364551  0.16610372  0.89371370    -0.04400
C665        C  0.16149586  0.19893374  0.90109941    -0.01500
C666        C  0.14580531  0.20517574  0.91925789     0.03400
C667        C  0.09835617  0.12332930  0.92738057     0.38100
C668        C  0.16976754  0.22674847  0.88809987     0.38100
C669        C  0.15585920  0.23515125  0.92963582     0.36500
C670        C  0.14490030  0.10648997  0.89530371     0.36500
N671        N  0.16626734  0.25793348  0.93820297    -0.38300
N672        N  0.14549919  0.07947749  0.88899133    -0.38300
N673        N  0.17496879  0.24689446  0.87607011    -0.37800
N674        N  0.07978532  0.10308083  0.93388139    -0.37800
C675        C  0.39537582  0.19781486  0.93307854    -0.04400
C676        C  0.36082229  0.20116492  0.94015853    -0.01500
C677        C  0.33698826  0.22081079  0.92918001     0.03400
C678        C  0.34968320  0.23999566  0.91284924    -0.04400
C679        C  0.37712742  0.22388197  0.90227465    -0.01500
C680        C  0.40113385  0.20355476  0.91272499     0.03400
C681        C  0.35065132  0.18620070  0.95892682     0.38100
C682        C  0.38316586  0.23078505  0.88159509     0.38100
C683        C  0.43240744  0.19122145  0.90294776     0.36500
C684        C  0.30063647  0.22205886  0.93495902     0.36500
N685        N  0.45722864  0.18145582  0.89495818    -0.38300
N686        N  0.27156344  0.22219710  0.93967238    -0.38300
N687        N  0.38960154  0.23560901  0.86512121    -0.37800
N688        N  0.34245168  0.17425390  0.97390452    -0.37800
C689        C  0.40278708  0.44048308  0.18028471    -0.04400
C690        C  0.39846618  0.40594726  0.17600997    -0.01500
C691        C  0.36858045  0.39499231  0.16594504     0.03400
C692        C  0.34451037  0.41880518  0.15814900    -0.04400
C693        C  0.34758585  0.45297428  0.16348928    -0.01500
C694        C  0.37522047  0.46317564  0.17563546     0.03400
C695        C  0.42446908  0.38150555  0.18230666     0.38100
C696        C  0.32285497  0.97995139  0.16202664     0.38100
C697        C  0.37731166  0.99511516  0.18856919     0.36500
C698        C  0.36279066  0.35920155  0.16323051     0.36500
N699        N  0.37434970  0.01933547  0.19781275    -0.38300
N700        N  0.35796466  0.33067563  0.16110402    -0.38300
N701        N  0.30066916  0.99911384  0.15887363    -0.37800
N702        N  0.44520427  0.36191646  0.18727390    -0.37800
C703        C  0.15942869  0.41231959  0.14973481    -0.04400
C704        C  0.13852416  0.44102855  0.14561871    -0.01500
C705        C  0.10885415  0.44870630  0.15749527     0.03400
C706        C  0.10125521  0.42947951  0.17489492    -0.04400
C707        C  0.12131723  0.39963518  0.17826531    -0.01500
C708        C  0.14929356  0.39070766  0.16543258     0.03400
C709        C  0.14777109  0.46302950  0.12915507     0.38100
C710        C  0.11283959  0.37712380  0.19456795     0.38100
C711        C  0.16758093  0.35881487  0.16813084     0.36500
C712        C  0.08669830  0.47679478  0.15159810     0.36500
N713        N  0.18219143  0.33332116  0.16998337    -0.38300
N714        N  0.06911310  0.49894798  0.14636982    -0.38300
N715        N  0.10676317  0.35847855  0.20738039    -0.37800
N716        N  0.15512992  0.48085177  0.11614699    -0.37800
C717        C  0.41888559  0.06753438  0.17184520    -0.04400
C718        C  0.39601493  0.09559299  0.17483207    -0.01500
C719        C  0.36546002  0.09983513  0.16341433     0.03400
C720        C  0.35674945  0.07597160  0.14901617    -0.04400
C721        C  0.38038116  0.04912313  0.14526830    -0.01500
C722        C  0.41154538  0.04550339  0.15605639     0.03400
C723        C  0.40414452  0.12089684  0.18932245     0.38100
C724        C  0.37265924  0.02502353  0.12997714     0.38100
C725        C  0.43512854  0.01808348  0.15097164     0.36500
C726        C  0.34317981  0.12915011  0.16628931     0.36500
N727        N  0.45012392  0.50095075  0.14481497    -0.38300
N728        N  0.32524525  0.15240630  0.16866907    -0.38300
N729        N  0.36298108  0.51611433  0.11604014    -0.37800
N730        N  0.41032903  0.14128494  0.20081522    -0.37800
C731        C  0.11223472  0.05568978  0.17515726    -0.04400
C732        C  0.11398902  0.08631049  0.16446233    -0.01500
C733        C  0.14369552  0.09369631  0.15273775     0.03400
C734        C  0.17007080  0.06883713  0.14973553    -0.04400
C735        C  0.16841546  0.03838616  0.16080188    -0.01500
C736        C  0.14084862  0.03297155  0.17434993     0.03400
C737        C  0.08563471  0.11057459  0.16590456     0.38100
C738        C  0.19541862  0.01279114  0.15869799     0.38100
C739        C  0.14330266  0.00501898  0.18829376     0.36500
C740        C  0.14708371  0.12694010  0.14372402     0.36500
N741        N  0.14294398  0.48394172  0.19839052    -0.38300
N742        N  0.14973424  0.15337402  0.13642661    -0.38300
N743        N  0.21273058  0.49566118  0.15572972    -0.37800
N744        N  0.06299112  0.12995640  0.16694236    -0.37800
C745        C  0.07779586  0.11335362  0.69872429    -0.04400
C746        C  0.11417451  0.11233419  0.69501485    -0.01500
C747        C  0.12982838  0.13636296  0.68223504     0.03400
C748        C  0.10953621  0.16229773  0.67364864    -0.04400
C749        C  0.07375671  0.16457847  0.67816403    -0.01500
C750        C  0.05814093  0.14110119  0.69112622     0.03400
C751        C  0.13612880  0.08861945  0.70565658     0.38100
C752        C  0.05248990  0.19036304  0.66870094     0.38100
C753        C  0.02217592  0.14704295  0.69699275     0.36500
C754        C  0.16674666  0.13415527  0.67767046     0.36500
N755        N  0.49195899  0.15275629  0.69867640    -0.38300
N756        N  0.19615936  0.13214248  0.67391783    -0.38300
N757        N  0.53611799  0.21399845  0.66089559    -0.37800
N758        N  0.15420220  0.07047739  0.71436912    -0.37800
C759        C  0.10986505  0.33368479  0.67499992    -0.04400
C760        C  0.12971192  0.36032917  0.68253693    -0.01500
C761        C  0.11404955  0.38422326  0.69524208     0.03400
C762        C  0.07820573  0.38198913  0.70023041    -0.04400
C763        C  0.05953363  0.35320311  0.69419602    -0.01500
C764        C  0.07489732  0.33004321  0.68112883     0.03400
C765        C  0.16628777  0.36302417  0.67728544     0.38100
C766        C  0.02524206  0.34559988  0.70211881     0.38100
C767        C  0.05414304  0.30269087  0.67368480     0.36500
C768        C  0.13554011  0.40926130  0.70453375     0.36500
N769        N  0.03697772  0.28120745  0.66791346    -0.38300
N770        N  0.15287203  0.42870476  0.71228973    -0.38300
N771        N  0.99865982  0.33764184  0.70878628    -0.37800
N772        N  0.19548761  0.36526206  0.67310292    -0.37800
C773        C  0.43497541  0.10689427  0.68376833    -0.04400
C774        C  0.45387639  0.10893574  0.66579649    -0.01500
C775        C  0.44613232  0.13462076  0.65204358     0.03400
C776        C  0.41924379  0.15797291  0.65609592    -0.04400
C777        C  0.40031052  0.15599531  0.67399420    -0.01500
C778        C  0.40873043  0.13090382  0.68804562     0.03400
C779        C  0.48310592  0.08634497  0.66207270     0.38100
C780        C  0.37221976  0.17979569  0.67787378     0.38100
C781        C  0.39116763  0.13041935  0.70707661     0.36500
C782        C  0.46654221  0.13790083  0.63398280     0.36500
N783        N  0.37737847  0.13044746  0.72232501    -0.38300
N784        N  0.99198726  0.13688612  0.61938352    -0.38300
N785        N  0.34968830  0.19868596  0.68088683    -0.37800
N786        N  0.00814572  0.06303859  0.65896963    -0.37800
C787        C  0.43001890  0.33149416  0.65916669    -0.04400
C788        C  0.41838347  0.32766910  0.67895817    -0.01500
C789        C  0.42878424  0.35077855  0.69340517     0.03400
C790        C  0.44717547  0.38026080  0.68783710    -0.04400
C791        C  0.45928991  0.38373473  0.66813025    -0.01500
C792        C  0.45203006  0.35875262  0.65415436     0.03400
C793        C  0.39572854  0.29993135  0.68459221     0.38100
C794        C  0.48102969  0.41206482  0.66236952     0.38100
C795        C  0.46851423  0.36032681  0.63481570     0.36500
C796        C  0.42271136  0.34272602  0.71404805     0.36500
N797        N  0.48200345  0.36138434  0.61948861    -0.38300
N798        N  0.41940678  0.33519020  0.73048763    -0.38300
N799        N  0.00356800  0.43225377  0.65719562    -0.37800
N800        N  0.37782952  0.27774326  0.68918510    -0.37800
C801        C  0.33246451  0.11641950  0.53394612    -0.04400
C802        C  0.36732814  0.11399612  0.54056024    -0.01500
C803        C  0.38064697  0.13840760  0.55346348     0.03400
C804        C  0.35926954  0.16525493  0.56001617    -0.04400
C805        C  0.32524281  0.16872792  0.55270549    -0.01500
C806        C  0.31240882  0.14539805  0.53915159     0.03400
C807        C  0.39035696  0.08775170  0.53315796     0.38100
C808        C  0.30291869  0.19606159  0.55951656     0.38100
C809        C  0.27872952  0.15234688  0.53046244     0.36500
C810        C  0.41650781  0.13618099  0.55990893     0.36500
N811        N  0.25232107  0.15931634  0.52338019    -0.38300
N812        N  0.44511908  0.13457154  0.56505034    -0.38300
N813        N  0.28497822  0.21774040  0.56490383    -0.37800
N814        N  0.40919712  0.06727467  0.52714947    -0.37800
C815        C  0.33211753  0.38525668  0.53723843    -0.04400
C816        C  0.36764619  0.38724582  0.54257847    -0.01500
C817        C  0.38240197  0.36221227  0.55492249     0.03400
C818        C  0.36100649  0.33739126  0.56368344    -0.04400
C819        C  0.32568172  0.33548734  0.55853226    -0.01500
C820        C  0.31212001  0.35747332  0.54414614     0.03400
C821        C  0.38959108  0.41402686  0.53479474     0.38100
C822        C  0.30310947  0.31090232  0.56813999     0.38100
C823        C  0.27836569  0.34984532  0.53599322     0.36500
C824        C  0.41974342  0.36098158  0.55791074     0.36500
N825        N  0.25214110  0.34208998  0.52921202    -0.38300
N826        N  0.44961105  0.35956166  0.55993154    -0.38300
N827        N  0.28483826  0.29173336  0.57593347    -0.37800
N828        N  0.40737890  0.43534876  0.52880500    -0.37800
C829        C  0.19342626  0.11499677  0.54848394    -0.04400
C830        C  0.16332792  0.13480384  0.54540301    -0.01500
C831        C  0.15273773  0.15843824  0.55967612     0.03400
C832        C  0.17285785  0.16286698  0.57674991    -0.04400
C833        C  0.20323667  0.14323147  0.57964645    -0.01500
C834        C  0.21347306  0.11929387  0.56555357     0.03400
C835        C  0.14331215  0.13060261  0.52760735     0.38100
C836        C  0.22399849  0.14769807  0.59713932     0.38100
C837        C  0.24505662  0.09949740  0.56843546     0.36500
C838        C  0.12077176  0.17760226  0.55705804     0.36500
N839        N  0.27034766  0.08391680  0.57074244    -0.38300
N840        N  0.09509002  0.19265682  0.55498670    -0.38300
N841        N  0.24056138  0.15106751  0.61110718    -0.37800
N842        N  0.12767333  0.12717523  0.51330069    -0.37800
C843        C  0.19334501  0.38850401  0.55064006    -0.04400
C844        C  0.16624196  0.36632959  0.54596041    -0.01500
C845        C  0.15530838  0.34182886  0.55984982     0.03400
C846        C  0.17268908  0.33844300  0.57801791    -0.04400
C847        C  0.20077865  0.35981322  0.58231012    -0.01500
C848        C  0.21101390  0.38490112  0.56866246     0.03400
C849        C  0.15022262  0.36834212  0.52671443     0.38100
C850        C  0.21965537  0.35540468  0.60058105     0.38100
C851        C  0.24107772  0.40568024  0.57261382     0.36500
C852        C  0.12613713  0.32020242  0.55552491     0.36500
N853        N  0.26530204  0.42195664  0.57562851    -0.38300
N854        N  0.10280599  0.30299913  0.55209345    -0.38300
N855        N  0.23463123  0.35184058  0.61517068    -0.37800
N856        N  0.13795573  0.36978866  0.51122541    -0.37800
C857        C  0.08349278  0.10288528  0.30214336    -0.04400
C858        C  0.10310283  0.13085992  0.29426934    -0.01500
C859        C  0.11053615  0.15952900  0.30596027     0.03400
C860        C  0.09654589  0.16252964  0.32519787    -0.04400
C861        C  0.07895745  0.13394575  0.33334252    -0.01500
C862        C  0.07554339  0.10370087  0.32251114     0.03400
C863        C  0.11774390  0.13013619  0.27446163     0.38100
C864        C  0.06521346  0.13497245  0.35331899     0.38100
C865        C  0.06891929  0.07238949  0.33307351     0.36500
C866        C  0.13433634  0.18513226  0.29851544     0.36500
N867        N  0.06513514  0.04724149  0.34167673    -0.38300
N868        N  0.15357390  0.20535201  0.29265079    -0.38300
N869        N  0.05480770  0.13573581  0.36937408    -0.37800
N870        N  0.12964914  0.12991754  0.25871562    -0.37800
C871        C  0.08109888  0.41172221  0.30798794    -0.04400
C872        C  0.06082975  0.40130854  0.32458436    -0.01500
C873        C  0.06669106  0.36921916  0.33366507     0.03400
C874        C  0.09289809  0.34691882  0.32649998    -0.04400
C875        C  0.11505540  0.35851056  0.31120939    -0.01500
C876        C  0.11015407  0.39104088  0.30265619     0.03400
C877        C  0.03381492  0.42318367  0.33249604     0.38100
C878        C  0.14410848  0.33745173  0.30494582     0.38100
C879        C  0.13678155  0.40428661  0.28942083     0.36500
C880        C  0.04616591  0.35920249  0.35082632     0.36500
N881        N  0.15853778  0.41496557  0.27924209    -0.38300
N882        N  0.03016385  0.35093369  0.36458668    -0.38300
N883        N  0.16721374  0.32049382  0.30001607    -0.37800
N884        N  0.01234764  0.44038184  0.33918617    -0.37800
C885        C  0.14393965  0.16617186  0.42246421    -0.04400
C886        C  0.12091432  0.14150492  0.42998768    -0.01500
C887        C  0.13289978  0.11666103  0.44356463     0.03400
C888        C  0.16758200  0.11763261  0.45062014    -0.04400
C889        C  0.18919720  0.14487552  0.44438797    -0.01500
C890        C  0.17818628  0.16734096  0.42948467     0.03400
C891        C  0.08483964  0.14204990  0.42387059     0.38100
C892        C  0.22249150  0.15126535  0.45342788     0.38100
C893        C  0.20256694  0.19130709  0.42085626     0.36500
C894        C  0.10892416  0.09114540  0.45080320     0.36500
N895        N  0.22198987  0.21006703  0.41367575    -0.38300
N896        N  0.08943658  0.07099586  0.45646103    -0.38300
N897        N  0.24854091  0.15817778  0.46070993    -0.37800
N898        N  0.05600261  0.14280274  0.41908569    -0.37800
C899        C  0.17502864  0.38564513  0.44921344    -0.04400
C900        C  0.19452155  0.35593956  0.44489335    -0.01500
C901        C  0.18325899  0.33393199  0.43017343     0.03400
C902        C  0.15020568  0.33832215  0.42168949    -0.04400
C903        C  0.12929250  0.36619172  0.42711117    -0.01500
C904        C  0.14187130  0.39011111  0.44048787     0.03400
C905        C  0.22518475  0.34646562  0.45600435     0.38100
C906        C  0.09489818  0.37037161  0.41875204     0.38100
C907        C  0.11970293  0.41834290  0.44604371     0.36500
C908        C  0.20627174  0.30738636  0.42308382     0.36500
N909        N  0.10203588  0.44082588  0.45055561    -0.38300
N910        N  0.22449207  0.28648884  0.41700339    -0.38300
N911        N  0.06751606  0.37372939  0.41201534    -0.37800
N912        N  0.24887214  0.33730717  0.46507478    -0.37800
C913        C  0.43712416  0.10340783  0.30140482    -0.04400
C914        C  0.40827381  0.12348120  0.29489588    -0.01500
C915        C  0.39930311  0.15429314  0.30422073     0.03400
C916        C  0.41899501  0.16613345  0.32008913    -0.04400
C917        C  0.44770243  0.14643292  0.32651600    -0.01500
C918        C  0.45482102  0.11427593  0.31833431     0.03400
C919        C  0.38562487  0.11136511  0.27958562     0.38100
C920        C  0.46864236  0.15875844  0.34250220     0.38100
C921        C  0.47610192  0.09064875  0.32928145     0.36500
C922        C  0.36931565  0.17362706  0.29757756     0.36500
N923        N  0.49095962  0.07118551  0.33890357    -0.38300
N924        N  0.34548009  0.18889716  0.29201009    -0.38300
N925        N  0.48493064  0.16939935  0.35520882    -0.37800
N926        N  0.36703236  0.10202196  0.26755040    -0.37800
C927        C  0.42300265  0.34794639  0.32717413    -0.04400
C928        C  0.40039324  0.37628759  0.32479099    -0.01500
C929        C  0.41221974  0.40647430  0.31542774     0.03400
C930        C  0.44585504  0.40807334  0.30683424    -0.04400
C931        C  0.46723230  0.37865042  0.30788451    -0.01500
C932        C  0.45716188  0.35041926  0.31955757     0.03400
C933        C  0.36452984  0.37413869  0.33159213     0.38100
C934        C  0.00307972  0.37251947  0.29633228     0.38100
C935        C  0.48205243  0.32406082  0.32425692     0.36500
C936        C  0.38886755  0.43520690  0.31344274     0.36500
N937        N  0.00472516  0.29672730  0.32686250    -0.38300
N938        N  0.37019751  0.45812514  0.31179548    -0.38300
N939        N  0.02712157  0.36914152  0.28609562    -0.37800
N940        N  0.33592999  0.37224872  0.33703526    -0.37800
C941        C  0.30608742  0.11297038  0.43748081    -0.04400
C942        C  0.28874009  0.11745837  0.41936897    -0.01500
C943        C  0.29913722  0.14325552  0.40615694     0.03400
C944        C  0.32833880  0.16313126  0.41037642    -0.04400
C945        C  0.34547782  0.15887484  0.42859078    -0.01500
C946        C  0.33368396  0.13447183  0.44235528     0.03400
C947        C  0.25952547  0.09619815  0.41454817     0.38100
C948        C  0.37506785  0.17979952  0.43320189     0.38100
C949        C  0.34975338  0.13148673  0.46155923     0.36500
C950        C  0.27908599  0.15033072  0.38857466     0.36500
N951        N  0.36211251  0.12917317  0.47699797    -0.38300
N952        N  0.26291480  0.15642204  0.37467320    -0.38300
N953        N  0.39867105  0.19648711  0.43689153    -0.37800
N954        N  0.23624246  0.07930949  0.41056137    -0.37800
C955        C  0.33218524  0.33621154  0.41418084    -0.04400
C956        C  0.30342699  0.35688503  0.40934454    -0.01500
C957        C  0.29110138  0.38085810  0.42286735     0.03400
C958        C  0.30680955  0.38335314  0.44149629    -0.04400
C959        C  0.33424621  0.36127989  0.44678770    -0.01500
C960        C  0.34757267  0.33832590  0.43289063     0.03400
C961        C  0.28658768  0.35338746  0.39045743     0.38100
C962        C  0.34913311  0.36261786  0.46630965     0.38100
C963        C  0.37769824  0.31746828  0.43747966     0.36500
C964        C  0.26202612  0.40280437  0.41771295     0.36500
N965        N  0.40197695  0.30094605  0.44079867    -0.38300
N966        N  0.23892434  0.42040265  0.41364446    -0.38300
N967        N  0.36087268  0.36342782  0.48192742    -0.37800
N968        N  0.27313159  0.35048276  0.37540915    -0.37800
N969        N  0.38065660  0.80458003  0.37077686    -0.35700
N970        N  0.40420364  0.75669819  0.34174354    -0.56300
N971        N  0.37387474  0.70257739  0.36612947    -0.35700
N972        N  0.35255612  0.75091475  0.39552271    -0.56300
C973        C  0.40220446  0.82384231  0.35955284     0.27900
C974        C  0.37718812  0.81994364  0.38838330     0.27900
C975        C  0.39329018  0.68408025  0.35336552     0.27900
C976        C  0.36459886  0.68179330  0.38131433     0.27900
C977        C  0.40832725  0.78571448  0.33106589     0.36500
C978        C  0.40840300  0.73039767  0.32925841     0.36500
C979        C  0.34028010  0.77767134  0.40554108     0.36500
C980        C  0.33549992  0.72386721  0.40279794     0.36500
C981        C  0.41307985  0.85133102  0.37030099    -0.21000
C982        C  0.39707500  0.84895387  0.38848922    -0.21000
C983        C  0.39539849  0.65098393  0.36046094    -0.21000
C984        C  0.37765472  0.64970438  0.37807268    -0.21000
C985        C  0.41495179  0.77767557  0.31154216    -0.22000
C986        C  0.41581308  0.74279500  0.31050145    -0.22000
C987        C  0.31537333  0.76766106  0.41932544    -0.22000
C988        C  0.31248545  0.73334410  0.41765149    -0.22000
C989        C  0.40952884  0.81883818  0.33932183    -0.17400
C990        C  0.35350499  0.81045925  0.40343672    -0.17400
C991        C  0.34336633  0.69044272  0.39766307    -0.17400
C992        C  0.40712833  0.69549871  0.33489058    -0.17400
H993        H  0.43008056  0.87147537  0.36536362     0.15500
H994        H  0.39915989  0.86690951  0.40030379     0.15500
H995        H  0.40780258  0.62941985  0.35368616     0.15500
H996        H  0.37434213  0.62745189  0.38730508     0.15500
H997        H  0.41986331  0.79506217  0.29942398     0.13800
H998        H  0.42119797  0.72827931  0.29740096     0.13800
H999        H  0.30147823  0.78326117  0.42983214     0.13800
H1000       H  0.29602370  0.71712727  0.42663594     0.13800
H1001       H  0.36523642  0.78507056  0.36572683     0.27100
H1002       H  0.36454133  0.72691804  0.36364472     0.27100
N1003       N  0.11531500  0.70106199  0.37361541    -0.35700
N1004       N  0.10022716  0.75319562  0.34461115    -0.56300
N1005       N  0.11282195  0.80361122  0.37466214    -0.35700
N1006       N  0.12746368  0.75127306  0.40299078    -0.56300
C1007       C  0.11833176  0.68426090  0.35648842     0.27900
C1008       C  0.13359218  0.68333600  0.38721330     0.27900
C1009       C  0.11314514  0.82289325  0.35810614     0.27900
C1010       C  0.12912219  0.82131350  0.38877228     0.27900
C1011       C  0.08855417  0.72569467  0.33489015     0.36500
C1012       C  0.08852129  0.78128751  0.33495356     0.36500
C1013       C  0.12757524  0.72339680  0.41454785     0.36500
C1014       C  0.12676205  0.77788132  0.41516340     0.36500
C1015       C  0.13952342  0.65599981  0.35913191    -0.21000
C1016       C  0.14889621  0.65525539  0.37863226    -0.21000
C1017       C  0.12979126  0.85314694  0.36174461    -0.21000
C1018       C  0.14009323  0.85202620  0.38105383    -0.21000
C1019       C  0.06900804  0.73656456  0.31892372    -0.22000
C1020       C  0.06999563  0.77158164  0.31862818    -0.22000
C1021       C  0.12634954  0.73221823  0.43424381    -0.22000
C1022       C  0.12582886  0.76691793  0.43463310    -0.22000
C1023       C  0.09851627  0.69145032  0.33948336    -0.17400
C1024       C  0.13457691  0.69082625  0.40742419    -0.17400
C1025       C  0.13212373  0.81141830  0.40877005    -0.17400
C1026       C  0.09592507  0.81530112  0.34040492    -0.17400
H1027       H  0.14634114  0.63715712  0.34830323     0.15500
H1028       H  0.16459540  0.63594763  0.38575933     0.15500
H1029       H  0.13370616  0.87412001  0.35160842     0.15500
H1030       H  0.15343181  0.87191098  0.38865940     0.15500
H1031       H  0.05653374  0.72096907  0.30813878     0.13800
H1032       H  0.05883142  0.78802364  0.30749330     0.13800
H1033       H  0.12748899  0.71546504  0.44694686     0.13800
H1034       H  0.12635748  0.78229177  0.44769734     0.13800
H1035       H  0.09786901  0.72074535  0.37647367     0.27100
H1036       H  0.09845100  0.78166674  0.37677642     0.27100
O1037       O  0.17571470  0.94387439  0.45849526    -0.74400
O1038       O  0.20589292  0.90448879  0.47618145    -0.53300
C1039       C  0.18405575  0.91297527  0.46272448     0.79300
O1040       O  0.30403397  0.55385978  0.44591321    -0.59000
O1041       O  0.28198813  0.59359542  0.46681415    -0.52000
C1042       C  0.29791704  0.58446193  0.45098577     0.71400
O1043       O  0.30455607  0.94316595  0.44930279    -0.73500
O1044       O  0.28043771  0.90438220  0.47043632    -0.54100
C1045       C  0.29819712  0.91281023  0.45501125     0.77400
O1046       O  0.17839720  0.55790901  0.45811460    -0.58700
O1047       O  0.20885849  0.59687249  0.47502237    -0.51800
C1048       C  0.18699454  0.58862850  0.46182682     0.74000
Zr1049     Zr  0.18776475  0.00089530  0.47070074     2.54700
O1050       O  0.16333095  0.00263589  0.43775514    -0.79200
O1051       O  0.13109720  0.49574948  0.48374320    -0.92700
Zr1052     Zr  0.29067290  0.99955440  0.46029614     2.64700
O1053       O  0.27942498  0.99414919  0.42522999    -0.97600
O1054       O  0.35530313  0.49559914  0.45384160    -0.79700
O1055       O  0.23905657  0.96798758  0.46552136    -0.83000
O1056       O  0.24177415  0.53131917  0.46428466    -2.17700
O1057       O  0.20093855  0.55865206  0.54071681    -0.66400
O1058       O  0.22239866  0.59685115  0.51834419    -0.51000
C1059       C  0.20780731  0.58884235  0.53485574     0.72300
O1060       O  0.32351863  0.94234092  0.52885522    -0.59300
O1061       O  0.29030616  0.90338768  0.51355918    -0.51300
C1062       C  0.31462383  0.91159032  0.52543216     0.74100
O1063       O  0.32550789  0.55799442  0.52716954    -0.70700
O1064       O  0.29346561  0.59684163  0.51006743    -0.49400
C1065       C  0.31689416  0.58872187  0.52263212     0.75500
O1066       O  0.19699088  0.94580071  0.54215315    -0.66100
O1067       O  0.21748779  0.90542812  0.52117623    -0.53300
C1068       C  0.20263625  0.91505726  0.53726212     0.73900
Zr1069     Zr  0.20570974  0.00134337  0.52783819     2.77500
O1070       O  0.21236004  0.00043574  0.56351103    -0.96800
O1071       O  0.14248968  0.00244711  0.53096540    -0.77600
Zr1072     Zr  0.30860442  0.99995781  0.51771826     2.70100
O1073       O  0.33503118  0.49965047  0.55012770    -0.78900
O1074       O  0.36892992  0.99996370  0.50635172    -0.98000
Zr1075     Zr  0.24786365  0.93586106  0.49495033     2.21500
Zr1076     Zr  0.25102170  0.56402896  0.49295266     2.11100
O1077       O  0.25983103  0.53269136  0.52260575    -2.46600
O1078       O  0.25702419  0.96852471  0.52351505    -0.78700
O1079       O  0.19810855  0.53425535  0.49884166    -0.70900
O1080       O  0.30026687  0.96678257  0.48933403    -2.31800
O1081       O  0.19549353  0.96774896  0.49979334    -2.28000
O1082       O  0.30323794  0.53237708  0.48770286    -0.72600
H1083       H  0.23910440  0.54525056  0.45263388     0.79400
H1084       H  0.32001429  0.95180532  0.48757557     0.80500
H1085       H  0.26348090  0.54703574  0.53375262     0.82700
H1086       H  0.17581927  0.95307283  0.50203404     0.80300
H1087       H  0.36353034  0.98868593  0.46548362     0.43300
H1088       H  0.38494902  0.50453145  0.51514474     0.42300
H1089       H  0.35127929  0.00686883  0.55162621     0.42000
H1090       H  0.24175534  0.50661425  0.56509039     0.39900
H1091       H  0.13571888  0.48579717  0.52806520     0.43000
H1092       H  0.12190520  0.97587024  0.48370926     0.37800
H1093       H  0.18175471  0.99283351  0.42919547     0.43900
H1094       H  0.26315928  0.51369650  0.42228150     0.40400
H1095       H  0.20269306  0.51623623  0.56931164     0.45300
H1096       H  0.11423297  0.01013186  0.47282607     0.44000
H1097       H  0.29493858  0.01063211  0.41854088     0.44100
H1098       H  0.37490413  0.47579477  0.50071410     0.44500
N1099       N  0.40696491  0.79879371  0.60701050    -0.35700
N1100       N  0.41959679  0.74588337  0.63547197    -0.56300
N1101       N  0.40269718  0.69509030  0.60624516    -0.35700
N1102       N  0.38903507  0.74800739  0.57821617    -0.56300
C1103       C  0.40864276  0.81692384  0.62374654     0.27900
C1104       C  0.38996848  0.81798366  0.59353824     0.27900
C1105       C  0.40129707  0.67673322  0.62310484     0.27900
C1106       C  0.38505155  0.67785367  0.59253093     0.27900
C1107       C  0.43338586  0.77206478  0.64521250     0.36500
C1108       C  0.43045848  0.71752845  0.64484748     0.36500
C1109       C  0.38855182  0.77589778  0.56664240     0.36500
C1110       C  0.38736376  0.72131124  0.56610366     0.36500
C1111       C  0.39321584  0.84828992  0.62076402    -0.21000
C1112       C  0.38124868  0.84890572  0.60171923    -0.21000
C1113       C  0.38302220  0.64720158  0.62003633    -0.21000
C1114       C  0.37271048  0.64792885  0.60069004    -0.21000
C1115       C  0.45319664  0.76028577  0.66082792    -0.22000
C1116       C  0.45136390  0.72564862  0.66059089    -0.22000
C1117       C  0.38721025  0.76691431  0.54698297    -0.22000
C1118       C  0.38655263  0.73220745  0.54663843    -0.22000
C1119       C  0.42532385  0.80634781  0.64126786    -0.17400
C1120       C  0.38363003  0.80892213  0.57379545    -0.17400
C1121       C  0.38107172  0.68797878  0.57267477    -0.17400
C1122       C  0.41842457  0.68483856  0.64068842    -0.17400
H1123       H  0.39090575  0.86864441  0.63120372     0.15500
H1124       H  0.36801925  0.86993621  0.59464201     0.15500
H1125       H  0.37795820  0.62706736  0.63058752     0.15500
H1126       H  0.35801587  0.62855096  0.59344167     0.15500
H1127       H  0.46667531  0.77512812  0.67158567     0.13800
H1128       H  0.46322681  0.70844949  0.67111006     0.13800
H1129       H  0.38535112  0.78366561  0.53430949     0.13800
H1130       H  0.38403501  0.71682973  0.53366427     0.13800
H1131       H  0.41976345  0.77605421  0.60432026     0.27100
H1132       H  0.41807214  0.71626309  0.60376108     0.27100
N1133       N  0.14832626  0.80004047  0.62887999    -0.35700
N1134       N  0.13720058  0.74540396  0.65607368    -0.56300
N1135       N  0.15770641  0.69687615  0.62617997    -0.35700
N1136       N  0.16753378  0.75195835  0.59851580    -0.56300
C1137       C  0.12956568  0.81582785  0.64306431     0.27900
C1138       C  0.14690857  0.81964635  0.61248952     0.27900
C1139       C  0.14138093  0.67651155  0.63940187     0.27900
C1140       C  0.15944135  0.68015574  0.60895740     0.27900
C1141       C  0.13457638  0.77132027  0.66875694     0.36500
C1142       C  0.13868261  0.71688882  0.66707553     0.36500
C1143       C  0.17750451  0.78090885  0.58955815     0.36500
C1144       C  0.18212161  0.72671979  0.58801655     0.36500
C1145       C  0.11604832  0.84587897  0.63554007    -0.21000
C1146       C  0.12736772  0.84845146  0.61625628    -0.21000
C1147       C  0.13325789  0.64618777  0.63058395    -0.21000
C1148       C  0.14491129  0.64841520  0.61135365    -0.21000
C1149       C  0.13519432  0.75926716  0.68800756    -0.22000
C1150       C  0.13741258  0.72464889  0.68693124    -0.22000
C1151       C  0.19843126  0.77405719  0.57327028    -0.22000
C1152       C  0.20130523  0.73957859  0.57228089    -0.22000
C1153       C  0.12658702  0.80484912  0.66293479    -0.17400
C1154       C  0.16513266  0.81316389  0.59478259    -0.17400
C1155       C  0.17546479  0.69229946  0.59147787    -0.17400
C1156       C  0.13481233  0.68426610  0.65936989    -0.17400
H1157       H  0.10024383  0.86435580  0.64323648     0.15500
H1158       H  0.12201703  0.86920986  0.60619100     0.15500
H1159       H  0.12055653  0.62458816  0.63733713     0.15500
H1160       H  0.14284487  0.62895664  0.60037558     0.15500
H1161       H  0.13241515  0.77374962  0.70135910     0.13800
H1162       H  0.13668635  0.70710009  0.69928201     0.13800
H1163       H  0.20974933  0.79197728  0.56291845     0.13800
H1164       H  0.21523306  0.72556559  0.56104924     0.13800
H1165       H  0.16479339  0.77931554  0.63086392     0.27100
H1166       H  0.16989847  0.71956109  0.62920763     0.27100
O1167       O  0.44408868  0.58086066  0.27047766    -0.74400
O1168       O  0.46968851  0.55240359  0.29593697    -0.53300
C1169       C  0.45085197  0.57720828  0.28886292     0.79300
O1170       O  0.43145785  0.94365807  0.21053832    -0.59000
O1171       O  0.46358771  0.96822575  0.18562809    -0.52000
C1172       C  0.43709623  0.95120357  0.19236819     0.71400
O1173       O  0.44624854  0.93117524  0.27429189    -0.73500
O1174       O  0.47286461  0.96235648  0.29797373    -0.54100
C1175       C  0.45475359  0.93664699  0.29222921     0.77400
O1176       O  0.43518667  0.56603159  0.20562080    -0.58700
O1177       O  0.46827853  0.53928248  0.18239738    -0.51800
C1178       C  0.44246163  0.55847746  0.18759022     0.74000
Zr1179     Zr  0.45648752  0.55504925  0.23897809     2.54700
O1180       O  0.39322452  0.55529915  0.24130584    -0.79200
O1181       O  0.45920403  0.61612598  0.23476047    -0.92700
Zr1182     Zr  0.45667667  0.95642933  0.24196826     2.64700
O1183       O  0.39487268  0.96796079  0.24705608    -0.97600
O1184       O  0.45115204  0.89538778  0.23961032    -0.79700
O1185       O  0.45441117  0.50731614  0.26097139    -0.83000
O1186       O  0.45543206  0.50417037  0.22177329    -2.17700
O1187       O  0.08380755  0.56341409  0.20748148    -0.66400
O1188       O  0.05583218  0.53091031  0.18494399    -0.51000
C1189       C  0.08017815  0.55148861  0.19016464     0.72300
O1190       O  0.07173363  0.93108782  0.27468948    -0.59300
O1191       O  0.04725896  0.96326899  0.29890780    -0.51300
C1192       C  0.06500043  0.93707383  0.29294240     0.74100
O1193       O  0.08180280  0.93831053  0.20860499    -0.70700
O1194       O  0.04916396  0.96298965  0.18442793    -0.49400
C1195       C  0.07492762  0.94429369  0.19026939     0.75500
O1196       O  0.07285212  0.57786887  0.27079461    -0.66100
O1197       O  0.04683529  0.54992988  0.29635025    -0.53300
C1198       C  0.06590875  0.57443008  0.28921753     0.73900
Zr1199     Zr  0.05889814  0.55248950  0.23966556     2.77500
O1200       O  0.12223162  0.55304706  0.24108144    -0.96800
O1201       O  0.04938821  0.61277043  0.23408727    -0.77600
Zr1202     Zr  0.06038355  0.95319920  0.24178127     2.70100
O1203       O  0.12352623  0.95569997  0.24412567    -0.78900
O1204       O  0.05675368  0.89194876  0.24207747    -0.98000
Zr1205     Zr  0.01032756  0.50484657  0.28146395     2.21500
Zr1206     Zr  0.00933244  0.49850959  0.20242960     2.11100
O1207       O  0.06035805  0.50164394  0.22202447    -2.46600
O1208       O  0.06213397  0.50438881  0.26101767    -0.78700
O1209       O  0.00819576  0.55075001  0.21990090    -0.70900
O1210       O  0.00966049  0.95719631  0.26122658    -2.31800
O1211       O  0.00832833  0.55247706  0.25942409    -2.28000
O1212       O  0.00863766  0.95225285  0.22270013    -0.72600
H1213       H  0.43430708  0.50500212  0.21425089     0.79400
H1214       H  0.00978488  0.93694404  0.26917489     0.80500
H1215       H  0.08131864  0.50091773  0.21412191     0.82700
H1216       H  0.00793400  0.57335719  0.26658505     0.80300
H1217       H  0.46431500  0.88933616  0.22751370     0.43300
H1218       H  0.04820594  0.88623388  0.22884167     0.42300
H1219       H  0.13212567  0.93573480  0.23684314     0.42000
H1220       H  0.12843846  0.57716241  0.24200491     0.39900
H1221       H  0.03920076  0.62119943  0.24657591     0.43000
H1222       H  0.47570258  0.62370420  0.24486501     0.37800
H1223       H  0.38640380  0.53191885  0.23829008     0.43900
H1224       H  0.38834574  0.98306209  0.23594585     0.40400
H1225       H  0.12791015  0.54322935  0.25415036     0.45300
H1226       H  0.43620376  0.62441228  0.23946029     0.44000
H1227       H  0.38335769  0.94632254  0.24417640     0.44100
H1228       H  0.08128146  0.88406320  0.24225047     0.44500
O1229       O  0.44984312  0.81834606  0.95336758    -0.74400
O1230       O  0.41337534  0.79244871  0.97522699    -0.53300
C1231       C  0.41904521  0.81217994  0.96048861     0.79300
O1232       O  0.07218197  0.68395121  0.94085039    -0.59000
O1233       O  0.11527351  0.70576125  0.95969893    -0.52000
C1234       C  0.10448940  0.68871585  0.94492919     0.71400
O1235       O  0.44600969  0.71211516  0.94012781    -0.73500
O1236       O  0.40975362  0.72843681  0.96510577    -0.54100
C1237       C  0.41559004  0.71962528  0.94721190     0.77400
O1238       O  0.07508928  0.81325730  0.95028739    -0.58700
O1239       O  0.11748344  0.77872891  0.96270021    -0.51800
C1240       C  0.10646846  0.80203908  0.95067754     0.74000
Zr1241     Zr  0.01855359  0.80134542  0.96437789     2.54700
O1242       O  0.01766300  0.83969772  0.93603198    -0.79200
O1243       O  0.01601068  0.85602107  0.98045008    -0.92700
Zr1244     Zr  0.01466514  0.70183060  0.95322891     2.64700
O1245       O  0.50639034  0.70730842  0.91680519    -0.97600
O1246       O  0.00742041  0.64120472  0.94960504    -0.79700
O1247       O  0.47590727  0.75717935  0.95963078    -0.83000
O1248       O  0.04979060  0.75031609  0.95719827    -2.17700
O1249       O  0.08164680  0.78834141  0.03241009    -0.66400
O1250       O  0.12038201  0.76644745  0.01019083    -0.51000
C1251       C  0.11281426  0.78155088  0.02645283     0.72300
O1252       O  0.45495370  0.66984246  0.02066193    -0.59300
O1253       O  0.41483408  0.70504070  0.00696530    -0.51300
C1254       C  0.42332531  0.67929758  0.01754893     0.74100
O1255       O  0.07410554  0.66202744  0.01860222    -0.70700
O1256       O  0.11614395  0.69363009  0.00321807    -0.49400
C1257       C  0.10602510  0.66915976  0.01467136     0.75500
O1258       O  0.46373743  0.80848422  0.03202421    -0.66100
O1259       O  0.41966561  0.78120343  0.01664976    -0.53300
C1260       C  0.43135237  0.80250791  0.02907901     0.73900
Zr1261     Zr  0.02240136  0.78102173  0.02112486     2.77500
O1262       O  0.01568113  0.76135528  0.05501074    -0.96800
O1263       O  0.03056940  0.83939076  0.03076747    -0.77600
Zr1264     Zr  0.01680240  0.68309045  0.01028786     2.70100
O1265       O  0.01736230  0.66961569  0.04538549    -0.78900
O1266       O  0.01761006  0.62419563  0.00066354    -0.98000
Zr1267     Zr  0.44721212  0.74890315  0.99045213     2.21500
Zr1268     Zr  0.08608502  0.73903828  0.98499235     2.11100
O1269       O  0.05331916  0.73038724  0.01475325    -2.46600
O1270       O  0.48317589  0.73707327  0.01784342    -0.78700
O1271       O  0.05536813  0.79056430  0.99165793    -0.70900
O1272       O  0.47515999  0.69681672  0.98275387    -2.31800
O1273       O  0.48149393  0.79810971  0.99395854    -2.28000
O1274       O  0.05016340  0.69070348  0.98089579    -0.72600
H1275       H  0.06329148  0.75255332  0.94518141     0.79400
H1276       H  0.45858580  0.67883168  0.98126703     0.80500
H1277       H  0.06852626  0.72572746  0.02570116     0.82700
H1278       H  0.46740301  0.81801399  0.99622734     0.80300
H1279       H  0.49978013  0.63850641  0.93889040     0.43300
H1280       H  0.01312229  0.61155140  0.01308969     0.42300
H1281       H  0.51428569  0.68942637  0.05129930     0.42000
H1282       H  0.03185725  0.74187853  0.05616661     0.39900
H1283       H  0.01369408  0.85247585  0.02275118     0.43000
H1284       H  0.49453730  0.87380055  0.97306396     0.37800
H1285       H  0.50479379  0.86051042  0.93646077     0.43900
H1286       H  0.99987154  0.73182842  0.91583338     0.40400
H1287       H  0.02603522  0.77937116  0.06298723     0.45300
H1288       H  0.03463668  0.86937512  0.97391815     0.44000
H1289       H  0.03906289  0.72095252  0.91470191     0.44100
H1290       H  0.99634408  0.62138208  0.99277153     0.44500
N1291       N  0.29422448  0.80032840  0.83495476    -0.35700
N1292       N  0.24582506  0.79332186  0.86704983    -0.56300
N1293       N  0.19954019  0.83764189  0.84750324    -0.35700
N1294       N  0.24736806  0.84072622  0.81329753    -0.56300
C1295       C  0.30567743  0.77008089  0.84193749     0.27900
C1296       C  0.31443401  0.80932803  0.81942149     0.27900
C1297       C  0.18168003  0.82250383  0.86232477     0.27900
C1298       C  0.18008761  0.83512616  0.83112043     0.27900
C1299       C  0.26869709  0.76891107  0.87204132     0.36500
C1300       C  0.22657912  0.80114536  0.88316636     0.36500
C1301       C  0.27689644  0.85503501  0.80648535     0.36500
C1302       C  0.22068247  0.86110499  0.80812784     0.36500
C1303       C  0.33532677  0.76100396  0.83108560    -0.21000
C1304       C  0.34076603  0.78578856  0.81696356    -0.21000
C1305       C  0.15217485  0.80742245  0.85481103    -0.21000
C1306       C  0.15035839  0.81678023  0.83524192    -0.21000
C1307       C  0.26451386  0.76120546  0.89184630    -0.22000
C1308       C  0.23797568  0.78149777  0.89895798    -0.22000
C1309       C  0.26881105  0.88511695  0.79672332    -0.22000
C1310       C  0.23283275  0.88857578  0.79741990    -0.22000
C1311       C  0.29065587  0.75179413  0.85831225    -0.17400
C1312       C  0.31013256  0.83932899  0.80816845    -0.17400
C1313       C  0.18613328  0.85428904  0.81388298    -0.17400
C1314       C  0.19438801  0.81907985  0.88176978    -0.17400
H1315       H  0.35279935  0.73991046  0.83354303     0.15500
H1316       H  0.36180306  0.78658549  0.80622799     0.15500
H1317       H  0.13362652  0.79159405  0.86260886     0.15500
H1318       H  0.12959759  0.81098095  0.82520268     0.15500
H1319       H  0.27841329  0.74223784  0.90018106     0.13800
H1320       H  0.22641448  0.77899299  0.91346618     0.13800
H1321       H  0.28677485  0.90253354  0.78970298     0.13800
H1322       H  0.21761261  0.90934383  0.79146273     0.13800
H1323       H  0.27511455  0.81579652  0.84091993     0.27100
H1324       H  0.22215632  0.85182860  0.84906090     0.27100
N1325       N  0.24113081  0.68923186  0.86465116    -0.35700
N1326       N  0.29547245  0.69557562  0.82808003    -0.56300
N1327       N  0.23850726  0.66158643  0.80725983    -0.35700
N1328       N  0.19066185  0.65649923  0.84049862    -0.56300
C1329       C  0.27301963  0.69526801  0.87184220     0.27900
C1330       C  0.22506159  0.66805859  0.87748036     0.27900
C1331       C  0.26499215  0.66306414  0.79388198     0.27900
C1332       C  0.20844794  0.65708462  0.79732424     0.27900
C1333       C  0.31103441  0.69552672  0.84577484     0.36500
C1334       C  0.31103044  0.67066000  0.81785356     0.36500
C1335       C  0.17338780  0.65565780  0.85794871     0.36500
C1336       C  0.16705676  0.65164084  0.82628751     0.36500
C1337       C  0.27808352  0.67724589  0.88914642    -0.21000
C1338       C  0.24695626  0.66097926  0.89316758    -0.21000
C1339       C  0.25175525  0.66049795  0.77509924    -0.21000
C1340       C  0.21609220  0.65704245  0.77723752    -0.21000
C1341       C  0.33547206  0.66981842  0.84716997    -0.22000
C1342       C  0.33653519  0.65475330  0.82897966    -0.22000
C1343       C  0.13834811  0.65018070  0.85496967    -0.22000
C1344       C  0.13436795  0.64711577  0.83492396    -0.22000
C1345       C  0.29801831  0.71425004  0.86151054    -0.17400
C1346       C  0.18966639  0.65892709  0.87635845    -0.17400
C1347       C  0.17475274  0.65060215  0.80574789    -0.17400
C1348       C  0.30075406  0.66142163  0.79892988    -0.17400
H1349       H  0.30132181  0.67662193  0.89802810     0.15500
H1350       H  0.24112932  0.64539317  0.90597355     0.15500
H1351       H  0.26641003  0.65985989  0.76139188     0.15500
H1352       H  0.19799707  0.65356134  0.76533714     0.15500
H1353       H  0.35030068  0.66251725  0.86002386     0.13800
H1354       H  0.35232554  0.63315008  0.82485637     0.13800
H1355       H  0.11792710  0.64812860  0.86602513     0.13800
H1356       H  0.11004747  0.64219915  0.82765641     0.13800
H1357       H  0.23060647  0.70075818  0.85211628     0.27100
H1358       H  0.24205538  0.66002147  0.82238949     0.27100
O1359       O  0.44985972  0.93800658  0.69467447    -0.74400
O1360       O  0.46798963  0.89865655  0.71722041    -0.53300
C1361       C  0.45590344  0.90732159  0.70027527     0.79300
O1362       O  0.07168227  0.55462796  0.70606095    -0.59000
O1363       O  0.03504699  0.59466533  0.71872722    -0.52000
C1364       C  0.06165982  0.58551109  0.70828255     0.71400
O1365       O  0.06997660  0.93893142  0.70808974    -0.73500
O1366       O  0.03944366  0.89979968  0.72581230    -0.54100
C1367       C  0.06242552  0.90803929  0.71274775     0.77400
O1368       O  0.43520897  0.55039631  0.69613175    -0.58700
O1369       O  0.45808052  0.59236165  0.71471070    -0.51800
C1370       C  0.44157323  0.58151691  0.69974249     0.74000
Zr1371     Zr  0.44940960  0.99451422  0.70892662     2.54700
O1372       O  0.44346504  0.99625833  0.67326400    -0.79200
O1373       O  0.38643232  0.98882258  0.71161212    -0.92700
Zr1374     Zr  0.05340256  0.99698827  0.71754710     2.64700
O1375       O  0.06180955  0.99401987  0.68200203    -0.97600
O1376       O  0.11546989  0.99466320  0.72395807    -0.79700
O1377       O  0.00400987  0.96254045  0.71468294    -0.83000
O1378       O  0.00043354  0.53083842  0.71050512    -2.17700
O1379       O  0.40665103  0.55328386  0.76762672    -0.66400
O1380       O  0.44113707  0.59536670  0.75565864    -0.51000
C1381       C  0.41232045  0.58441136  0.76323780     0.72300
O1382       O  0.06348644  0.94868181  0.78355979    -0.59300
O1383       O  0.03992361  0.90423120  0.76765523    -0.51300
C1384       C  0.06228121  0.91712315  0.77961337     0.74100
O1385       O  0.06190121  0.55577653  0.77309130    -0.70700
O1386       O  0.03322155  0.59863155  0.75765018    -0.49400
C1387       C  0.05923833  0.58681465  0.76752786     0.75500
O1388       O  0.41708558  0.94159177  0.77573245    -0.66100
O1389       O  0.45048198  0.90054584  0.76128244    -0.53300
C1390       C  0.42446329  0.91079375  0.77189073     0.73900
Zr1391     Zr  0.43732725  0.99702078  0.76682514     2.77500
O1392       O  0.43678605  0.00399106  0.80242279    -0.96800
O1393       O  0.37468380  0.98873920  0.76753259    -0.77600
Zr1394     Zr  0.03413863  0.00129052  0.77572592     2.70100
O1395       O  0.00629319  0.00738171  0.80792169    -0.78900
O1396       O  0.08314139  0.00250873  0.79829617    -0.98000
Zr1397     Zr  0.99700021  0.93117421  0.74483112     2.21500
Zr1398     Zr  0.99140189  0.56565125  0.73879760     2.11100
O1399       O  0.98287213  0.53558435  0.76929204    -2.46600
O1400       O  0.98547910  0.96527702  0.77305922    -0.78700
O1401       O  0.43943046  0.52968573  0.73800475    -0.70900
O1402       O  0.04635709  0.96711058  0.74771009    -2.31800
O1403       O  0.44315495  0.96273898  0.73844826    -2.28000
O1404       O  0.04247809  0.53197097  0.74391213    -0.72600
H1405       H  0.00409222  0.54432111  0.69871385     0.79400
H1406       H  0.06781793  0.95446011  0.74882998     0.80500
H1407       H  0.97924410  0.55093403  0.78009362     0.82700
H1408       H  0.42345489  0.94794634  0.73720040     0.80300
H1409       H  0.12631913  0.00565207  0.71226841     0.43300
H1410       H  0.10370347  0.00855707  0.79010391     0.42300
H1411       H  0.00179866  0.98393554  0.81244389     0.42000
H1412       H  0.41327019  0.01308069  0.80548744     0.39900
H1413       H  0.36951105  0.97800922  0.75480120     0.43000
H1414       H  0.37778001  0.99567941  0.69846149     0.37800
H1415       H  0.46721578  0.00123148  0.66823594     0.43900
H1416       H  0.04997255  0.01435902  0.67664261     0.40400
H1417       H  0.43658232  0.98068388  0.80787289     0.45300
H1418       H  0.37894179  0.00736976  0.72038370     0.44000
H1419       H  0.08693914  0.99831619  0.67984965     0.44100
H1420       H  0.07898794  0.02226254  0.80683729     0.44500
N1421       N  0.26031665  0.59703903  0.07202930    -0.35700
N1422       N  0.20734067  0.58453004  0.10185263    -0.56300
N1423       N  0.26088765  0.58922941  0.13234881    -0.35700
N1424       N  0.31401119  0.59803347  0.10147838    -0.56300
C1425       C  0.23280850  0.59176395  0.06033660     0.27900
C1426       C  0.28867702  0.59973310  0.06024459     0.27900
C1427       C  0.23298985  0.58134245  0.14386752     0.27900
C1428       C  0.29017159  0.58469936  0.14317772     0.27900
C1429       C  0.18633050  0.58803086  0.08605118     0.36500
C1430       C  0.18625418  0.58241801  0.11786925     0.36500
C1431       C  0.33233115  0.61103856  0.08614886     0.36500
C1432       C  0.33358155  0.60249900  0.11757275     0.36500
C1433       C  0.24379275  0.59079079  0.04082636    -0.21000
C1434       C  0.27921221  0.59557444  0.04077232    -0.21000
C1435       C  0.24476100  0.57369694  0.16271753    -0.21000
C1436       C  0.28069649  0.57491192  0.16212376    -0.21000
C1437       C  0.15179025  0.58672845  0.09186739    -0.22000
C1438       C  0.15166717  0.58236629  0.11190861    -0.22000
C1439       C  0.36383934  0.62356402  0.09252809    -0.22000
C1440       C  0.36480912  0.61773539  0.11243276    -0.22000
C1441       C  0.19768689  0.59361618  0.06644581    -0.17400
C1442       C  0.32164763  0.61065896  0.06634418    -0.17400
C1443       C  0.32503801  0.59063782  0.13664769    -0.17400
C1444       C  0.19736377  0.58040330  0.13780311    -0.17400
H1445       H  0.22767299  0.58842612  0.02794272     0.15500
H1446       H  0.29579812  0.59761483  0.02781716     0.15500
H1447       H  0.22923723  0.56728550  0.17560124     0.15500
H1448       H  0.29781984  0.56980071  0.17437940     0.15500
H1449       H  0.12905462  0.58845449  0.08261663     0.13800
H1450       H  0.12844338  0.57992168  0.12094815     0.13800
H1451       H  0.38421363  0.63531558  0.08376050     0.13800
H1452       H  0.38597601  0.62413881  0.12206697     0.13800
H1453       H  0.25881466  0.60488977  0.08647669     0.27100
H1454       H  0.25968576  0.59921228  0.11825601     0.27100
N1455       N  0.26879484  0.86371185  0.08234572    -0.35700
N1456       N  0.31547048  0.89599876  0.10888543    -0.56300
N1457       N  0.25759017  0.90763777  0.13633578    -0.35700
N1458       N  0.21022700  0.87739306  0.10881137    -0.56300
C1459       C  0.29532352  0.87346846  0.07048635     0.27900
C1460       C  0.24055796  0.86221513  0.07085529     0.27900
C1461       C  0.28495807  0.91230988  0.14854386     0.27900
C1462       C  0.22786822  0.90760357  0.14744348     0.27900
C1463       C  0.33871030  0.88900615  0.09439450     0.36500
C1464       C  0.33371925  0.90985972  0.12347614     0.36500
C1465       C  0.19264229  0.86325143  0.09386660     0.36500
C1466       C  0.18606839  0.88917964  0.12170616     0.36500
C1467       C  0.28384777  0.87960993  0.05156212    -0.21000
C1468       C  0.24853322  0.87403996  0.05203088    -0.21000
C1469       C  0.27229423  0.91543305  0.16767313    -0.21000
C1470       C  0.23643383  0.91314604  0.16692689    -0.21000
C1471       C  0.37164644  0.89932090  0.09933010    -0.22000
C1472       C  0.36836328  0.91353156  0.11754878    -0.22000
C1473       C  0.15710790  0.86738854  0.09688095    -0.22000
C1474       C  0.15293183  0.88317505  0.11463158    -0.22000
C1475       C  0.32990715  0.87517207  0.07630123    -0.17400
C1476       C  0.20871797  0.84841143  0.07709781    -0.17400
C1477       C  0.19326445  0.90330637  0.14035103    -0.17400
C1478       C  0.32089732  0.91511590  0.14286750    -0.17400
H1479       H  0.29923108  0.88766447  0.03892367     0.15500
H1480       H  0.23103069  0.87671901  0.03970753     0.15500
H1481       H  0.28727752  0.91956754  0.18082207     0.15500
H1482       H  0.21879241  0.91511095  0.17940585     0.15500
H1483       H  0.39524658  0.89768229  0.09051510     0.13800
H1484       H  0.38950807  0.92426804  0.12573888     0.13800
H1485       H  0.13626049  0.86031615  0.08720893     0.13800
H1486       H  0.12817759  0.88925626  0.12154416     0.13800
H1487       H  0.27068669  0.85453258  0.09679170     0.27100
H1488       H  0.25870801  0.90742131  0.12105544     0.27100
C1489       C  0.09001155  0.60808180  0.77261144    -0.04400
C1490       C  0.12301485  0.59181676  0.77346424    -0.01500
C1491       C  0.14947193  0.60490903  0.78511522     0.03400
C1492       C  0.14669712  0.63789481  0.79249592    -0.04400
C1493       C  0.11633040  0.65713301  0.78834240    -0.01500
C1494       C  0.08732011  0.64174097  0.77930427     0.03400
C1495       C  0.12992549  0.56097184  0.76267753     0.38100
C1496       C  0.11430100  0.69204476  0.79442620     0.38100
C1497       C  0.05482275  0.66021073  0.77775813     0.36500
C1498       C  0.17731113  0.58250056  0.79139679     0.36500
N1499       N  0.02921300  0.67567101  0.77671816    -0.38300
N1500       N  0.19810518  0.56334283  0.79676807    -0.38300
N1501       N  0.11274852  0.71993542  0.79927285    -0.37800
N1502       N  0.13588276  0.53645291  0.75414283    -0.37800
C1503       C  0.32730523  0.64481035  0.78573692    -0.04400
C1504       C  0.32232429  0.61151214  0.77933092    -0.01500
C1505       C  0.34844015  0.59502615  0.76842851     0.03400
C1506       C  0.38269594  0.60805525  0.76769762    -0.04400
C1507       C  0.38765670  0.64194176  0.77326874    -0.01500
C1508       C  0.35940305  0.66079317  0.78120577     0.03400
C1509       C  0.29228225  0.59237068  0.78574876     0.38100
C1510       C  0.42162194  0.65733553  0.77131115     0.38100
C1511       C  0.36353953  0.69649533  0.78480826     0.36500
C1512       C  0.33937799  0.56525409  0.75737777     0.36500
N1513       N  0.36715973  0.72510915  0.78721536    -0.38300
N1514       N  0.33161524  0.54213145  0.74818980    -0.38300
N1515       N  0.44874832  0.66964456  0.76971763    -0.37800
N1516       N  0.26901347  0.57635065  0.79120670    -0.37800
C1517       C  0.15524385  0.87090266  0.80434757    -0.04400
C1518       C  0.14404129  0.86129277  0.78551542    -0.01500
C1519       C  0.11187065  0.87355715  0.77798834     0.03400
C1520       C  0.09087020  0.89633284  0.78903817    -0.04400
C1521       C  0.10209514  0.90498140  0.80822128    -0.01500
C1522       C  0.13425787  0.89312930  0.81551581     0.03400
C1523       C  0.16586860  0.83894266  0.77382460     0.38100
C1524       C  0.08032086  0.92588357  0.82083447     0.38100
C1525       C  0.14638142  0.90446502  0.83452085     0.36500
C1526       C  0.10070133  0.86222527  0.75894325     0.36500
N1527       N  0.15653677  0.91318453  0.84960677    -0.38300
N1528       N  0.09234118  0.85184273  0.74389343    -0.38300
N1529       N  0.06321918  0.94252694  0.83103637    -0.37800
N1530       N  0.18354542  0.82140270  0.76446974    -0.37800
C1531       C  0.34152582  0.85410711  0.79809859    -0.04400
C1532       C  0.37082085  0.86322476  0.80934393    -0.01500
C1533       C  0.40016614  0.87785435  0.80010945     0.03400
C1534       C  0.39923338  0.88635741  0.77993244    -0.04400
C1535       C  0.36949321  0.87857246  0.76885632    -0.01500
C1536       C  0.34222446  0.85980989  0.77751682     0.03400
C1537       C  0.37020955  0.85931124  0.83059189     0.38100
C1538       C  0.36485255  0.89345970  0.74941251     0.38100
C1539       C  0.31492338  0.84662929  0.76525527     0.36500
C1540       C  0.43033283  0.88656657  0.81166353     0.36500
N1541       N  0.29331634  0.83582962  0.75544941    -0.38300
N1542       N  0.45434272  0.89350299  0.82089878    -0.38300
N1543       N  0.36072581  0.90602302  0.73411777    -0.37800
N1544       N  0.36986651  0.85633688  0.84755608    -0.37800
C1545       C  0.13238680  0.64849085  0.02547607    -0.04400
C1546       C  0.15829584  0.66467236  0.03639870    -0.01500
C1547       C  0.17667699  0.64687125  0.05097068     0.03400
C1548       C  0.17365294  0.61155974  0.05268849    -0.04400
C1549       C  0.15033856  0.59440401  0.04054484    -0.01500
C1550       C  0.12856394  0.61297839  0.02759892     0.05000
C1551       C  0.16785232  0.69910378  0.03218496     0.38100
C1552       C  0.14896171  0.55787349  0.04132814     0.38100
C1553       C  0.10302457  0.59535058  0.01607782     0.36500
C1554       C  0.19828313  0.66500822  0.06467931     0.36500
N1555       N  0.08266200  0.58111989  0.00695267    -0.38300
N1556       N  0.21498581  0.67900181  0.07602387    -0.38300
N1557       N  0.14805644  0.52867391  0.04178252    -0.37800
N1558       N  0.17783036  0.72589046  0.02860927    -0.37800
C1559       C  0.39476591  0.65973601  0.02733062    -0.04400
C1560       C  0.36278720  0.67588798  0.03249531    -0.01500
C1561       C  0.33830354  0.65894710  0.04442778     0.03400
C1562       C  0.34522381  0.62593536  0.05129957    -0.04400
C1563       C  0.37541044  0.60868863  0.04498562    -0.01500
C1564       C  0.39979464  0.62521533  0.03267405     0.03400
C1565       C  0.35485788  0.71034839  0.02632323     0.38100
C1566       C  0.38183456  0.57428148  0.05173557     0.38100
C1567       C  0.42938509  0.60606896  0.02521389     0.36500
C1568       C  0.30647275  0.67622897  0.05036571     0.36500
N1569       N  0.45263999  0.59027878  0.01929292    -0.38300
N1570       N  0.28123561  0.69039956  0.05488455    -0.38300
N1571       N  0.38710533  0.54696401  0.05725196    -0.37800
N1572       N  0.34804457  0.73772348  0.02148434    -0.37800
C1573       C  0.14158299  0.79178036  0.03973653    -0.04400
C1574       C  0.17480899  0.80129033  0.03233994    -0.01500
C1575       C  0.20005666  0.81333634  0.04537823     0.03400
C1576       C  0.18993819  0.82232233  0.06480343    -0.04400
C1577       C  0.16246931  0.80305138  0.07296363    -0.01500
C1578       C  0.13721633  0.78942642  0.06052475     0.03400
C1579       C  0.18473483  0.79563685  0.01197468     0.38100
C1580       C  0.16288524  0.79341819  0.09369085     0.38100
C1581       C  0.10836485  0.77126805  0.06946216     0.36500
C1582       C  0.23643142  0.80705268  0.04050513     0.36500
N1583       N  0.08620233  0.75676440  0.07744858    -0.38300
N1584       N  0.26526199  0.80139341  0.03647814    -0.38300
N1585       N  0.16344406  0.78542261  0.11014607    -0.37800
N1586       N  0.19362656  0.78977903  0.99603380    -0.37800
C1587       C  0.40568208  0.82152201  0.04103018    -0.04400
C1588       C  0.38629655  0.80446934  0.05573711    -0.01500
C1589       C  0.36169191  0.82225717  0.06718822     0.03400
C1590       C  0.35675096  0.85738701  0.06422605    -0.04400
C1591       C  0.37692260  0.87471257  0.04995807    -0.01500
C1592       C  0.40108531  0.85673200  0.03816830     0.03400
C1593       C  0.39272694  0.76882434  0.05957442     0.38100
C1594       C  0.37308674  0.91100095  0.04770733     0.38100
C1595       C  0.42062722  0.87433407  0.02284826     0.36500
C1596       C  0.34184075  0.80444085  0.08232331     0.36500
N1597       N  0.43598972  0.88853741  0.01058657    -0.38300
N1598       N  0.32613659  0.79016625  0.09441311    -0.38300
N1599       N  0.37010141  0.94001362  0.04616649    -0.37800
N1600       N  0.39825835  0.74048952  0.06266048    -0.37800
C1601       C  0.12885664  0.81385907  0.93379770    -0.04400
C1602       C  0.11437922  0.81467043  0.91466164    -0.01500
C1603       C  0.13434311  0.82576843  0.89854762     0.03400
C1604       C  0.17101885  0.82531951  0.89979157    -0.04400
C1605       C  0.18452225  0.83117261  0.91885745    -0.01500
C1606       C  0.16307595  0.82619901  0.93589085     0.03400
C1607       C  0.07916492  0.80354072  0.91091170     0.38100
C1608       C  0.21886691  0.84566751  0.92073212     0.38100
C1609       C  0.17518854  0.83605033  0.95504064     0.36500
C1610       C  0.11662928  0.84577812  0.88363198     0.36500
N1611       N  0.18487749  0.84551792  0.97005247    -0.38300
N1612       N  0.10185761  0.86189732  0.87203721    -0.38300
N1613       N  0.24622138  0.85744226  0.92206499    -0.37800
N1614       N  0.05128008  0.79444072  0.90763627    -0.37800
C1615       C  0.38671443  0.82472115  0.95043833    -0.04400
C1616       C  0.35373854  0.81914907  0.95964385    -0.01500
C1617       C  0.32511829  0.81076828  0.94780706     0.03400
C1618       C  0.33110927  0.80530004  0.92752798    -0.04400
C1619       C  0.35547303  0.82825244  0.91953852    -0.01500
C1620       C  0.38609076  0.83463870  0.93031561     0.03400
C1621       C  0.34925700  0.82265333  0.98076029     0.38100
C1622       C  0.34727278  0.84579462  0.90141968     0.38100
C1623       C  0.41484940  0.85250981  0.92126325     0.36500
C1624       C  0.29040841  0.80822719  0.95611297     0.36500
N1625       N  0.43751805  0.86728983  0.91393052    -0.38300
N1626       N  0.26274977  0.80657678  0.96299724    -0.38300
N1627       N  0.33944886  0.85993545  0.88711232    -0.37800
N1628       N  0.34557509  0.82575030  0.99759227    -0.37800
C1629       C  0.13077592  0.67714203  0.93005575    -0.04400
C1630       C  0.13030937  0.64433888  0.92184591    -0.01500
C1631       C  0.15055732  0.63712940  0.90467761     0.03400
C1632       C  0.16811581  0.66355436  0.89468002    -0.04400
C1633       C  0.16623300  0.69619393  0.90238923    -0.01500
C1634       C  0.15216818  0.70170732  0.92109112     0.03400
C1635       C  0.11062951  0.61781269  0.93157469     0.38100
C1636       C  0.17380258  0.72449274  0.88955051     0.38100
C1637       C  0.16338944  0.73085638  0.93175537     0.36500
C1638       C  0.15193014  0.60336868  0.89676696     0.36500
N1639       N  0.17492340  0.75261718  0.94071446    -0.38300
N1640       N  0.15292436  0.57650821  0.89025002    -0.38300
N1641       N  0.17832144  0.74526147  0.87777059    -0.37800
N1642       N  0.09521191  0.59641287  0.93938287    -0.37800
C1643       C  0.38527815  0.72270483  0.93376397    -0.04400
C1644       C  0.35112436  0.72048373  0.94160238    -0.01500
C1645       C  0.32508669  0.74244888  0.93429355     0.03400
C1646       C  0.33492403  0.76860569  0.92102864    -0.04400
C1647       C  0.36269373  0.75983314  0.90803991    -0.01500
C1648       C  0.38922737  0.73799746  0.91496965     0.03400
C1649       C  0.34343636  0.69649710  0.95728238     0.38100
C1650       C  0.36528106  0.77473741  0.88851599     0.38100
C1651       C  0.42047582  0.73267391  0.90327218     0.36500
C1652       C  0.28899260  0.73811445  0.94002515     0.36500
N1653       N  0.44511500  0.72828316  0.89364354    -0.38300
N1654       N  0.26008143  0.73389470  0.94433085    -0.38300
N1655       N  0.36804674  0.78624589  0.87282984    -0.37800
N1656       N  0.33746859  0.67706487  0.96971403    -0.37800
C1657       C  0.40818021  0.94211768  0.17907314    -0.04400
C1658       C  0.40548015  0.90907762  0.17173498    -0.01500
C1659       C  0.37489977  0.89905471  0.16202767     0.03400
C1660       C  0.34804454  0.92285031  0.15796565    -0.04400
C1661       C  0.35030803  0.95547838  0.16581390    -0.01500
C1662       C  0.37917120  0.96432315  0.17729447     0.03400
C1663       C  0.43387291  0.88518416  0.17440596     0.38100
C1664       C  0.32189832  0.47747031  0.15678592     0.38100
C1665       C  0.37260247  0.49544039  0.18534623     0.36500
C1666       C  0.37134286  0.86446995  0.15557857     0.36500
N1667       N  0.36889498  0.52061771  0.19360246    -0.38300
N1668       N  0.36823309  0.83697665  0.15032999    -0.38300
N1669       N  0.30101665  0.49657164  0.15138731    -0.37800
N1670       N  0.45642498  0.86591406  0.17636231    -0.37800
C1671       C  0.16223512  0.91324996  0.15303406    -0.04400
C1672       C  0.14167474  0.94166024  0.14767777    -0.01500
C1673       C  0.11082365  0.94985029  0.15834532     0.03400
C1674       C  0.10078818  0.93059289  0.17527703    -0.04400
C1675       C  0.11980200  0.90047942  0.17943164    -0.01500
C1676       C  0.15043405  0.89216966  0.16862145     0.03400
C1677       C  0.15245613  0.96261534  0.13101862     0.38100
C1678       C  0.10672579  0.87665116  0.19405597     0.38100
C1679       C  0.16985029  0.86176322  0.17363694     0.36500
C1680       C  0.08981995  0.97820204  0.15159950     0.36500
N1681       N  0.18540526  0.83767537  0.17792174    -0.38300
N1682       N  0.07335056  0.00065168  0.14567776    -0.38300
N1683       N  0.09636774  0.85697813  0.20537266    -0.37800
N1684       N  0.16131935  0.97932123  0.11780502    -0.37800
C1685       C  0.41684210  0.57052939  0.17225545    -0.04400
C1686       C  0.39545137  0.59939089  0.17579827    -0.01500
C1687       C  0.36485841  0.60528498  0.16477699     0.03400
C1688       C  0.35541464  0.58290745  0.14981613    -0.04400
C1689       C  0.37819568  0.55589436  0.14503787    -0.01500
C1690       C  0.40905403  0.55018435  0.15579189     0.03400
C1691       C  0.40569475  0.62420792  0.19010722     0.38100
C1692       C  0.36973517  0.53372469  0.12890806     0.38100
C1693       C  0.43199113  0.52272964  0.14989525     0.36500
C1694       C  0.34344704  0.63493314  0.16845159     0.36500
N1695       N  0.45355849  0.99615794  0.14647815    -0.38300
N1696       N  0.32628300  0.65856401  0.17130263    -0.38300
N1697       N  0.36659322  0.00580398  0.11780207    -0.37800
N1698       N  0.41378025  0.64445594  0.20128025    -0.37800
C1699       C  0.10939565  0.55917952  0.17632649    -0.04400
C1700       C  0.11359244  0.59185714  0.16812952    -0.01500
C1701       C  0.14387862  0.59975085  0.15696840     0.03400
C1702       C  0.16921850  0.57442952  0.15297117    -0.04400
C1703       C  0.16560986  0.54229276  0.16188148    -0.01500
C1704       C  0.13719608  0.53565682  0.17457495     0.03400
C1705       C  0.08737306  0.61766492  0.17171937     0.38100
C1706       C  0.19160499  0.51615786  0.15837707     0.38100
C1707       C  0.13927333  0.50656872  0.18765859     0.36500
C1708       C  0.14856216  0.63365056  0.14907451     0.36500
N1709       N  0.14652167  0.98301844  0.19951883    -0.38300
N1710       N  0.15224014  0.66065091  0.14270783    -0.38300
N1711       N  0.21697888  0.99236370  0.15723825    -0.37800
N1712       N  0.06664868  0.63845217  0.17461468    -0.37800
C1713       C  0.08132591  0.61225201  0.69712398    -0.04400
C1714       C  0.11805524  0.60986365  0.69436408    -0.01500
C1715       C  0.13572971  0.63349595  0.68218015     0.03400
C1716       C  0.11687278  0.65879047  0.67211631    -0.04400
C1717       C  0.08055533  0.66131308  0.67473848    -0.01500
C1718       C  0.06314667  0.63944832  0.68793576     0.03400
C1719       C  0.13830422  0.58435090  0.70471344     0.38100
C1720       C  0.06094860  0.68622191  0.66342073     0.38100
C1721       C  0.02683230  0.64640075  0.69238225     0.36500
C1722       C  0.17337042  0.63213421  0.68008704     0.36500
N1723       N  0.49196197  0.65321698  0.69860372    -0.38300
N1724       N  0.20340248  0.63123568  0.67845964    -0.38300
N1725       N  0.53659068  0.70413692  0.65460841    -0.37800
N1726       N  0.15535046  0.56443319  0.71276925    -0.37800
C1727       C  0.11217756  0.82919922  0.67779089    -0.04400
C1728       C  0.13042115  0.85894677  0.68211004    -0.01500
C1729       C  0.11489661  0.88412781  0.69400254     0.03400
C1730       C  0.08071572  0.87984351  0.70187300    -0.04400
C1731       C  0.06393927  0.84832691  0.69888029    -0.01500
C1732       C  0.07923863  0.82372517  0.68658265     0.03400
C1733       C  0.16513335  0.86378810  0.67389191     0.38100
C1734       C  0.03109622  0.84006625  0.70849453     0.38100
C1735       C  0.06043449  0.79290697  0.68264105     0.36500
C1736       C  0.13501779  0.91377377  0.69860324     0.36500
N1737       N  0.04539750  0.76827687  0.67981067    -0.38300
N1738       N  0.15150121  0.93719437  0.70220009    -0.38300
N1739       N  0.00544185  0.83200710  0.71626291    -0.37800
N1740       N  0.19264362  0.86736689  0.66707467    -0.37800
C1741       C  0.43273871  0.60637724  0.68430225    -0.04400
C1742       C  0.45081287  0.60486072  0.66608903    -0.01500
C1743       C  0.44685224  0.63097123  0.65209785     0.03400
C1744       C  0.42316864  0.65763690  0.65574616    -0.04400
C1745       C  0.40355420  0.65810273  0.67349140    -0.01500
C1746       C  0.40916277  0.63304121  0.68803739     0.03400
C1747       C  0.47433029  0.57685371  0.66194790     0.38100
C1748       C  0.37722329  0.68401967  0.67660408     0.38100
C1749       C  0.39055980  0.63453605  0.70672333     0.36500
C1750       C  0.46765122  0.63067398  0.63410718     0.36500
N1751       N  0.37569173  0.63593239  0.72161924    -0.38300
N1752       N  0.99854818  0.64476110  0.62129188    -0.38300
N1753       N  0.35601377  0.70451818  0.67904270    -0.37800
N1754       N  0.01013051  0.56726364  0.65908962    -0.37800
C1755       C  0.43345040  0.83216670  0.65653198    -0.04400
C1756       C  0.41604271  0.83155848  0.67498352    -0.01500
C1757       C  0.42556618  0.85413539  0.68987279     0.03400
C1758       C  0.44934246  0.88035584  0.68568724    -0.04400
C1759       C  0.46667798  0.88113401  0.66717943    -0.01500
C1760       C  0.45921265  0.85679062  0.65281569     0.03400
C1761       C  0.38724601  0.80863395  0.67839021     0.38100
C1762       C  0.49371212  0.90582646  0.66330995     0.38100
C1763       C  0.47792522  0.85719249  0.63413247     0.36500
C1764       C  0.41246020  0.84876403  0.70971983     0.36500
N1765       N  0.49267987  0.85763288  0.61917049    -0.38300
N1766       N  0.40292882  0.84276322  0.72558880    -0.38300
N1767       N  0.02329342  0.92568774  0.66185968    -0.37800
N1768       N  0.36385727  0.79082200  0.68102445    -0.37800
C1769       C  0.33441223  0.61654818  0.53328090    -0.04400
C1770       C  0.37020761  0.61391627  0.53787119    -0.01500
C1771       C  0.38559409  0.63734943  0.55055810     0.03400
C1772       C  0.36543034  0.66372296  0.55868065    -0.04400
C1773       C  0.33017210  0.66733601  0.55346315    -0.01500
C1774       C  0.31519489  0.64497926  0.54006832     0.03400
C1775       C  0.39192038  0.58868128  0.52835026     0.38100
C1776       C  0.30873033  0.69332427  0.56252267     0.38100
C1777       C  0.28065178  0.65281083  0.53282916     0.36500
C1778       C  0.42215235  0.63416527  0.55540380     0.36500
N1779       N  0.25367184  0.66096196  0.52692524    -0.38300
N1780       N  0.45131907  0.63144641  0.55927852    -0.38300
N1781       N  0.29117063  0.71354222  0.56985822    -0.37800
N1782       N  0.40947592  0.56902746  0.52048936    -0.37800
C1783       C  0.33325948  0.88376481  0.53639479    -0.04400
C1784       C  0.36929946  0.88634843  0.54073225    -0.01500
C1785       C  0.38605157  0.86131589  0.55233771     0.03400
C1786       C  0.36680614  0.83439479  0.56049349    -0.04400
C1787       C  0.33106912  0.83177175  0.55643436    -0.01500
C1788       C  0.31485093  0.85502935  0.54355535     0.03400
C1789       C  0.38972842  0.91409742  0.53284499     0.38100
C1790       C  0.31041845  0.80626224  0.56659271     0.38100
C1791       C  0.27932671  0.84849934  0.53778275     0.36500
C1792       C  0.42302494  0.86338115  0.55632389     0.36500
N1793       N  0.25136949  0.84178801  0.53309327    -0.38300
N1794       N  0.45245415  0.86460354  0.55972672    -0.38300
N1795       N  0.29386569  0.78652889  0.57511575    -0.37800
N1796       N  0.40634549  0.93614409  0.52667645    -0.37800
C1797       C  0.20007546  0.61619733  0.54876553    -0.04400
C1798       C  0.17241687  0.63895417  0.54522550    -0.01500
C1799       C  0.16473257  0.66447209  0.55893236     0.03400
C1800       C  0.18515563  0.66751241  0.57600105    -0.04400
C1801       C  0.21430696  0.64620679  0.57878599    -0.01500
C1802       C  0.22137171  0.62012153  0.56541487     0.03400
C1803       C  0.15177124  0.63570994  0.52759371     0.38100
C1804       C  0.23752695  0.65192322  0.59511785     0.38100
C1805       C  0.25124130  0.59802245  0.56844459     0.36500
C1806       C  0.13591670  0.68760306  0.55551227     0.36500
N1807       N  0.27520962  0.58060948  0.57085382    -0.38300
N1808       N  0.11311177  0.70628150  0.55273751    -0.38300
N1809       N  0.25614502  0.65694377  0.60803068    -0.37800
N1810       N  0.13561693  0.63288287  0.51342462    -0.37800
C1811       C  0.19246224  0.88917519  0.55192455    -0.04400
C1812       C  0.16183355  0.87033552  0.54955867    -0.01500
C1813       C  0.15157441  0.84688733  0.56424233     0.03400
C1814       C  0.17254616  0.84158283  0.58095025    -0.04400
C1815       C  0.20315073  0.86044131  0.58331254    -0.01500
C1816       C  0.21293696  0.88446060  0.56891140     0.03400
C1817       C  0.14115100  0.87487215  0.53196760     0.38100
C1818       C  0.22515222  0.85407743  0.60023294     0.38100
C1819       C  0.24490657  0.90330173  0.57113369     0.36500
C1820       C  0.11965719  0.82797912  0.56217580     0.36500
N1821       N  0.27053924  0.91812107  0.57281391    -0.38300
N1822       N  0.09409886  0.81299420  0.56062831    -0.38300
N1823       N  0.24256488  0.84865555  0.61373300    -0.37800
N1824       N  0.12476230  0.87831515  0.51786862    -0.37800
C1825       C  0.07886930  0.60270547  0.30242003    -0.04400
C1826       C  0.09478005  0.63268931  0.29442698    -0.01500
C1827       C  0.10129099  0.66108712  0.30641671     0.03400
C1828       C  0.09013040  0.66162867  0.32629388    -0.04400
C1829       C  0.07590026  0.63126503  0.33443829    -0.01500
C1830       C  0.07329117  0.60159380  0.32302986     0.03400
C1831       C  0.10632478  0.63488266  0.27402245     0.38100
C1832       C  0.06434142  0.62991809  0.35483751     0.38100
C1833       C  0.06866486  0.56927533  0.33295737     0.36500
C1834       C  0.12077361  0.68943271  0.29829861     0.36500
N1835       N  0.06574131  0.54339492  0.34090354    -0.38300
N1836       N  0.13605757  0.71210660  0.29176538    -0.38300
N1837       N  0.05533902  0.62838604  0.37114231    -0.37800
N1838       N  0.11603821  0.63763243  0.25788295    -0.37800
C1839       C  0.07627549  0.90916385  0.30720686    -0.04400
C1840       C  0.05577179  0.90037702  0.32402529    -0.01500
C1841       C  0.06043501  0.86864705  0.33374774     0.03400
C1842       C  0.08653240  0.84546394  0.32747447    -0.04400
C1843       C  0.10879129  0.85524964  0.31179594    -0.01500
C1844       C  0.10398757  0.88667893  0.30187273     0.03400
C1845       C  0.02944560  0.92353400  0.33144095     0.38100
C1846       C  0.13784502  0.83346586  0.30641164     0.38100
C1847       C  0.12879658  0.89617184  0.28653459     0.36500
C1848       C  0.03836344  0.85992204  0.35051031     0.36500
N1849       N  0.14878708  0.90345986  0.27435487    -0.38300
N1850       N  0.02064840  0.85317383  0.36387081    -0.38300
N1851       N  0.16115514  0.81622636  0.30216977    -0.37800
N1852       N  0.00857649  0.94184714  0.33771001    -0.37800
C1853       C  0.14755080  0.66464120  0.42149373    -0.04400
C1854       C  0.12575125  0.63825783  0.42799949    -0.01500
C1855       C  0.13821867  0.61369619  0.44144770     0.03400
C1856       C  0.17227867  0.61622757  0.44916740    -0.04400
C1857       C  0.19324086  0.64420007  0.44333138    -0.01500
C1858       C  0.18154703  0.66699764  0.42877781     0.03400
C1859       C  0.09035064  0.63651086  0.42090131     0.38100
C1860       C  0.22673824  0.65065853  0.45215388     0.38100
C1861       C  0.20507188  0.69227403  0.42067669     0.36500
C1862       C  0.11531361  0.58653306  0.44769548     0.36500
N1863       N  0.22411510  0.71190853  0.41399513    -0.38300
N1864       N  0.09686352  0.56490634  0.45250401    -0.38300
N1865       N  0.25307999  0.65770123  0.45906179    -0.37800
N1866       N  0.06200012  0.63507000  0.41540029    -0.37800
C1867       C  0.16891027  0.88530324  0.45048416    -0.04400
C1868       C  0.18929579  0.85627858  0.44570749    -0.01500
C1869       C  0.17772964  0.83322270  0.43159880     0.03400
C1870       C  0.14436322  0.83667775  0.42338136    -0.04400
C1871       C  0.12293402  0.86412057  0.42888916    -0.01500
C1872       C  0.13515940  0.88852895  0.44216742     0.03400
C1873       C  0.22233669  0.84924669  0.45511857     0.38100
C1874       C  0.08847825  0.86743820  0.42044617     0.38100
C1875       C  0.11224451  0.91625085  0.44758767     0.36500
C1876       C  0.20113681  0.80679653  0.42471973     0.36500
N1877       N  0.09353361  0.93816127  0.45172658    -0.38300
N1878       N  0.22018449  0.78618635  0.41911429    -0.38300
N1879       N  0.06123825  0.86975074  0.41339902    -0.37800
N1880       N  0.24828960  0.84211098  0.46266373    -0.37800
C1881       C  0.43761035  0.60596505  0.30174568    -0.04400
C1882       C  0.40836990  0.62618574  0.29589876    -0.01500
C1883       C  0.39946136  0.65635862  0.30593325     0.03400
C1884       C  0.42057457  0.66834063  0.32115123    -0.04400
C1885       C  0.45066566  0.64948334  0.32619827    -0.01500
C1886       C  0.45690618  0.61715075  0.31804501     0.03400
C1887       C  0.38565763  0.61531294  0.28031064     0.38100
C1888       C  0.47415185  0.66288315  0.34068451     0.38100
C1889       C  0.47902970  0.59367353  0.32853244     0.36500
C1890       C  0.36823397  0.67509109  0.30063776     0.36500
N1891       N  0.49445889  0.57413508  0.33780260    -0.38300
N1892       N  0.34346818  0.69013623  0.29628544    -0.38300
N1893       N  0.49266502  0.67443307  0.35207473    -0.37800
N1894       N  0.36712795  0.60726789  0.26792052    -0.37800
C1895       C  0.42119744  0.84953246  0.32725568    -0.04400
C1896       C  0.40003668  0.87917743  0.32594231    -0.01500
C1897       C  0.41254459  0.90894422  0.31636443     0.03400
C1898       C  0.44503370  0.90878989  0.30643722    -0.04400
C1899       C  0.46517081  0.87858483  0.30684051    -0.01500
C1900       C  0.45457825  0.85038266  0.31836889     0.03400
C1901       C  0.36481781  0.87886865  0.33385552     0.38100
C1902       C  0.99741492  0.87405967  0.29379237     0.38100
C1903       C  0.47815889  0.82209797  0.32124161     0.36500
C1904       C  0.39134630  0.93940158  0.31599804     0.36500
N1905       N  0.99565060  0.79503614  0.32059028    -0.38300
N1906       N  0.37458191  0.96382086  0.31577269    -0.38300
N1907       N  0.02124416  0.87063452  0.28340969    -0.37800
N1908       N  0.33656358  0.87884576  0.33997097    -0.37800
C1909       C  0.30956083  0.61126060  0.43730364    -0.04400
C1910       C  0.29111673  0.61766417  0.41973638    -0.01500
C1911       C  0.30221191  0.64345588  0.40669029     0.03400
C1912       C  0.33144606  0.66304638  0.41133099    -0.04400
C1913       C  0.34940703  0.65697959  0.42908997    -0.01500
C1914       C  0.33861465  0.63093770  0.44198945     0.03400
C1915       C  0.26001880  0.59857065  0.41549380     0.38100
C1916       C  0.37891707  0.67772136  0.43406803     0.38100
C1917       C  0.35759934  0.62397193  0.45997406     0.36500
C1918       C  0.28338269  0.65031418  0.38865282     0.36500
N1919       N  0.37263125  0.61812792  0.47431719    -0.38300
N1920       N  0.26853415  0.65595756  0.37422268    -0.38300
N1921       N  0.40227702  0.69454927  0.43799497    -0.37800
N1922       N  0.23501707  0.58357596  0.41224475    -0.37800
C1923       C  0.33997799  0.83689323  0.41688408    -0.04400
C1924       C  0.31366162  0.85906184  0.41015837    -0.01500
C1925       C  0.29988267  0.88375515  0.42275712     0.03400
C1926       C  0.31171653  0.88575142  0.44231811    -0.04400
C1927       C  0.33672914  0.86244060  0.44939676    -0.01500
C1928       C  0.35141832  0.83842484  0.43653807     0.03400
C1929       C  0.29980275  0.85551759  0.39048635     0.38100
C1930       C  0.34710651  0.86307913  0.46987346     0.38100
C1931       C  0.37810589  0.81517822  0.44345422     0.36500
C1932       C  0.27230532  0.90607405  0.41584404     0.36500
N1933       N  0.39940830  0.79657004  0.44890506    -0.38300
N1934       N  0.25017155  0.92361658  0.41026946    -0.38300
N1935       N  0.35497252  0.86339996  0.48628042    -0.37800
N1936       N  0.28850564  0.85241277  0.37488650    -0.37800
N1937       N  0.88395005  0.30455469  0.37069635    -0.35700
N1938       N  0.90794156  0.25278910  0.34343285    -0.56300
N1939       N  0.87138868  0.20279859  0.36764106    -0.35700
N1940       N  0.85018881  0.25507219  0.39530159    -0.56300
C1941       C  0.90720580  0.32174591  0.35951375     0.27900
C1942       C  0.87879451  0.32239767  0.38737027     0.27900
C1943       C  0.88890012  0.18179536  0.35535111     0.27900
C1944       C  0.85830219  0.18368311  0.38262413     0.27900
C1945       C  0.91501354  0.28073764  0.33235319     0.36500
C1946       C  0.91233494  0.22552088  0.33171890     0.36500
C1947       C  0.83882616  0.28296459  0.40457296     0.36500
C1948       C  0.83156178  0.22933830  0.40288918     0.36500
C1949       C  0.91721187  0.35065560  0.36927755    -0.21000
C1950       C  0.89906750  0.35114339  0.38683812    -0.21000
C1951       C  0.88520421  0.14877233  0.36223804    -0.21000
C1952       C  0.86652722  0.15006514  0.37951410    -0.21000
C1953       C  0.92401292  0.27110778  0.31338857    -0.22000
C1954       C  0.92324125  0.23622763  0.31313812    -0.22000
C1955       C  0.81275507  0.27501641  0.41810835    -0.22000
C1956       C  0.80828467  0.24082022  0.41711365    -0.22000
C1957       C  0.91605177  0.31434303  0.33976348    -0.17400
C1958       C  0.85389619  0.31490191  0.40215631    -0.17400
C1959       C  0.83808984  0.19525477  0.39877636    -0.17400
C1960       C  0.90711153  0.19119993  0.33774134    -0.17400
H1961       H  0.93491934  0.36996716  0.36398689     0.15500
H1962       H  0.90006876  0.37076927  0.39776880     0.15500
H1963       H  0.89468642  0.12575683  0.35559303     0.15500
H1964       H  0.85939016  0.12848832  0.38858848     0.15500
H1965       H  0.93133858  0.28739791  0.30114184     0.13800
H1966       H  0.92952107  0.22065444  0.30058743     0.13800
H1967       H  0.79917165  0.29186848  0.42806886     0.13800
H1968       H  0.79061774  0.22597200  0.42616738     0.13800
H1969       H  0.86859882  0.28492062  0.36580823     0.27100
H1970       H  0.86639112  0.22821780  0.36521257     0.27100
N1971       N  0.61176767  0.20352297  0.37270110    -0.35700
N1972       N  0.59696665  0.25542105  0.34364339    -0.56300
N1973       N  0.60989262  0.30612481  0.37387691    -0.35700
N1974       N  0.62492494  0.25405058  0.40207395    -0.56300
C1975       C  0.61471763  0.18646168  0.35564126     0.27900
C1976       C  0.62995382  0.18583390  0.38636156     0.27900
C1977       C  0.60997493  0.32520803  0.35726008     0.27900
C1978       C  0.62676801  0.32387352  0.38777096     0.27900
C1979       C  0.58608944  0.22792029  0.33357642     0.36500
C1980       C  0.58554464  0.28358380  0.33393074     0.36500
C1981       C  0.62490079  0.22621899  0.41365472     0.36500
C1982       C  0.62506719  0.28069222  0.41423794     0.36500
C1983       C  0.63575070  0.15814207  0.35840075    -0.21000
C1984       C  0.64510743  0.15758979  0.37788513    -0.21000
C1985       C  0.62712680  0.35531747  0.36061993    -0.21000
C1986       C  0.63788976  0.35436803  0.37983475    -0.21000
C1987       C  0.56769301  0.23884809  0.31719780    -0.22000
C1988       C  0.56817401  0.27388236  0.31715421    -0.22000
C1989       C  0.62449069  0.23513382  0.43334994    -0.22000
C1990       C  0.62465832  0.26982107  0.43371431    -0.22000
C1991       C  0.59527939  0.19356098  0.33849311    -0.17400
C1992       C  0.63114449  0.19349589  0.40654681    -0.17400
C1993       C  0.63042186  0.31415611  0.40775153    -0.17400
C1994       C  0.59213845  0.31767700  0.33974253    -0.17400
H1995       H  0.64259546  0.13920571  0.34763212     0.15500
H1996       H  0.66080285  0.13834102  0.38506483     0.15500
H1997       H  0.63111160  0.37607843  0.35034104     0.15500
H1998       H  0.65173942  0.37417801  0.38721445     0.15500
H1999       H  0.55599906  0.22329342  0.30611529     0.13800
H2000       H  0.55701098  0.29034299  0.30601112     0.13800
H2001       H  0.62573019  0.21841343  0.44606369     0.13800
H2002       H  0.62587437  0.28522419  0.44674566     0.13800
H2003       H  0.59454408  0.22341637  0.37549733     0.27100
H2004       H  0.59536787  0.28430828  0.37613440     0.27100
O2005       O  0.67782117  0.44780452  0.45550573    -0.74400
O2006       O  0.70638190  0.40805952  0.47377586    -0.53300
C2007       C  0.68554237  0.41684078  0.45989260     0.79300
O2008       O  0.80154896  0.06083701  0.44800032    -0.59000
O2009       O  0.77690336  0.09943099  0.46875939    -0.52000
C2010       C  0.79417832  0.09111897  0.45323326     0.71400
O2011       O  0.80191401  0.44699189  0.44780943    -0.73500
O2012       O  0.78068210  0.40742403  0.46938195    -0.54100
C2013       C  0.79697988  0.41643662  0.45358614     0.77400
O2014       O  0.67486996  0.06105814  0.45725842    -0.58700
O2015       O  0.70380863  0.09998545  0.47506302    -0.51800
C2016       C  0.68263491  0.09177927  0.46145545     0.74000
Zr2017     Zr  0.68810672  0.50410561  0.46896579     2.54700
O2018       O  0.66270188  0.50630177  0.43627248    -0.79200
O2019       O  0.62816739  0.00303678  0.48296825    -0.92700
Zr2020     Zr  0.79123666  0.50331438  0.46008691     2.64700
O2021       O  0.78552438  0.50525381  0.42437624    -0.97600
O2022       O  0.85297725  0.00596620  0.45435753    -0.79700
O2023       O  0.73964067  0.47149600  0.46406746    -0.83000
O2024       O  0.73860979  0.03597342  0.46453984    -2.17700
O2025       O  0.69335242  0.05854798  0.54076356    -0.66400
O2026       O  0.71450801  0.09841047  0.51929135    -0.51000
C2027       C  0.69932601  0.08919188  0.53543450     0.72300
O2028       O  0.82054716  0.44595140  0.52925187    -0.59300
O2029       O  0.78922998  0.40698534  0.51270674    -0.51300
C2030       C  0.81227693  0.41523654  0.52534701     0.74100
O2031       O  0.82116426  0.06088203  0.52780008    -0.70700
O2032       O  0.78892390  0.09978750  0.51088305    -0.49400
C2033       C  0.81272668  0.09157709  0.52323102     0.75500
O2034       O  0.69546265  0.44681479  0.53998956    -0.66100
O2035       O  0.71651202  0.40728191  0.51865797    -0.53300
C2036       C  0.70167790  0.41627633  0.53483643     0.73900
Zr2037     Zr  0.70286018  0.50305057  0.52622776     2.77500
O2038       O  0.70807250  0.50068344  0.56195887    -0.96800
O2039       O  0.63951923  0.50297485  0.52852574    -0.77600
Zr2040     Zr  0.80622256  0.50311787  0.51743989     2.70100
O2041       O  0.81939433  0.00224238  0.55305635    -0.78900
O2042       O  0.86644658  0.50066894  0.50605204    -0.98000
Zr2043     Zr  0.74739945  0.43893072  0.49339240     2.21500
Zr2044     Zr  0.74569914  0.06766669  0.49382838     2.11100
O2045       O  0.75363211  0.03509006  0.52319632    -2.46600
O2046       O  0.75480208  0.47106214  0.52231147    -0.78700
O2047       O  0.69313097  0.03679202  0.49843892    -0.70900
O2048       O  0.79979899  0.47007897  0.48886676    -2.31800
O2049       O  0.69458714  0.47006932  0.49774876    -2.28000
O2050       O  0.79854555  0.03675171  0.48915721    -0.72600
H2051       H  0.73627344  0.05029473  0.45302494     0.79400
H2052       H  0.81969104  0.45523246  0.48724591     0.80500
H2053       H  0.75673120  0.04915038  0.53453656     0.82700
H2054       H  0.67508478  0.45502268  0.49950508     0.80300
H2055       H  0.86196266  0.52443240  0.46145429     0.43300
H2056       H  0.87903550  0.00204168  0.52204943     0.42300
H2057       H  0.80270315  0.49773123  0.55925611     0.42000
H2058       H  0.71795275  0.01446297  0.56742232     0.39900
H2059       H  0.63176491  0.00072268  0.54083030     0.43000
H2060       H  0.62301498  0.47847420  0.48295082     0.37800
H2061       H  0.68230176  0.51267259  0.42740541     0.43900
H2062       H  0.75378704  0.00981386  0.42416450     0.40400
H2063       H  0.67752898  0.00906687  0.56679467     0.45300
H2064       H  0.61468437  0.51326194  0.47283968     0.44000
H2065       H  0.76583284  0.49010723  0.42161091     0.44100
H2066       H  0.87150354  0.98368633  0.50223040     0.44500
N2067       N  0.90169249  0.30107012  0.60816633    -0.35700
N2068       N  0.91878575  0.24685945  0.63549705    -0.56300
N2069       N  0.90250782  0.19716493  0.60582987    -0.35700
N2070       N  0.88334049  0.25148354  0.57913618    -0.56300
C2071       C  0.90306099  0.31805305  0.62529579     0.27900
C2072       C  0.88382677  0.32065771  0.59523831     0.27900
C2073       C  0.90421452  0.17736436  0.62215265     0.27900
C2074       C  0.88467826  0.17988549  0.59220116     0.27900
C2075       C  0.93113871  0.27324036  0.64563843     0.36500
C2076       C  0.93110798  0.21870362  0.64450112     0.36500
C2077       C  0.88172138  0.27975946  0.56786971     0.36500
C2078       C  0.88164412  0.22520447  0.56671289     0.36500
C2079       C  0.88635425  0.34904498  0.62314032    -0.21000
C2080       C  0.87419349  0.35068510  0.60414888    -0.21000
C2081       C  0.88812171  0.14681062  0.61871005    -0.21000
C2082       C  0.87565224  0.14845025  0.59981450    -0.21000
C2083       C  0.95157711  0.26177526  0.66108788    -0.22000
C2084       C  0.95130359  0.22715744  0.66046016    -0.22000
C2085       C  0.87937522  0.27142689  0.54815603    -0.22000
C2086       C  0.87930950  0.23678282  0.54742528    -0.22000
C2087       C  0.92109957  0.30721742  0.64233735    -0.17400
C2088       C  0.87730405  0.31260848  0.57538836    -0.17400
C2089       C  0.87755725  0.19127726  0.57283046    -0.17400
C2090       C  0.92124303  0.18558821  0.63976816    -0.17400
H2091       H  0.88348542  0.36857179  0.63407065     0.15500
H2092       H  0.86008611  0.37169687  0.59761661     0.15500
H2093       H  0.88556598  0.12554517  0.62877953     0.15500
H2094       H  0.86162783  0.12867378  0.59251291     0.15500
H2095       H  0.96425258  0.27673241  0.67210405     0.13800
H2096       H  0.96372360  0.21013378  0.67086604     0.13800
H2097       H  0.87668052  0.28854116  0.53569900     0.13800
H2098       H  0.87661442  0.22182361  0.53429935     0.13800
H2099       H  0.91538510  0.27906708  0.60486039     0.27100
H2100       H  0.91563839  0.21975255  0.60353356     0.27100
N2101       N  0.64906147  0.30380909  0.62688503    -0.35700
N2102       N  0.63024930  0.25089439  0.65487157    -0.56300
N2103       N  0.64746556  0.20000642  0.62634794    -0.35700
N2104       N  0.66444816  0.25265824  0.59786807    -0.56300
C2105       C  0.63115532  0.32207868  0.64034698     0.27900
C2106       C  0.65130801  0.32285535  0.61028042     0.27900
C2107       C  0.63053408  0.18103584  0.64000977     0.27900
C2108       C  0.64786172  0.18238773  0.60944553     0.27900
C2109       C  0.62731828  0.27796215  0.66669608     0.36500
C2110       C  0.62829591  0.22325867  0.66670427     0.36500
C2111       C  0.67779978  0.27980506  0.58840172     0.36500
C2112       C  0.67569450  0.22547088  0.58780265     0.36500
C2113       C  0.62243786  0.35337288  0.63230365    -0.21000
C2114       C  0.63535099  0.35391578  0.61331160    -0.21000
C2115       C  0.62040837  0.15082744  0.63174793    -0.21000
C2116       C  0.63146061  0.15166201  0.61242000    -0.21000
C2117       C  0.62357783  0.26748239  0.68616608    -0.22000
C2118       C  0.62424365  0.23279750  0.68616812    -0.22000
C2119       C  0.69761935  0.26987072  0.57225063    -0.22000
C2120       C  0.69617935  0.23530599  0.57183460    -0.22000
C2121       C  0.62378961  0.31172248  0.65993002    -0.17400
C2122       C  0.66886013  0.31339864  0.59280827    -0.17400
C2123       C  0.66518017  0.19218685  0.59192087    -0.17400
C2124       C  0.62502361  0.18987319  0.65988285    -0.17400
H2125       H  0.60840520  0.37377337  0.63939896     0.15500
H2126       H  0.63320152  0.37475680  0.60291453     0.15500
H2127       H  0.60672264  0.13019990  0.63891897     0.15500
H2128       H  0.62814346  0.13177774  0.60181903     0.15500
H2129       H  0.61966154  0.28318759  0.69895273     0.13800
H2130       H  0.62076712  0.21644840  0.69892420     0.13800
H2131       H  0.71081935  0.28590347  0.56155919     0.13800
H2132       H  0.70817447  0.21930901  0.56081833     0.13800
H2133       H  0.66209038  0.28110496  0.62947072     0.27100
H2134       H  0.66139729  0.22186137  0.62897980     0.27100
O2135       O  0.94909966  0.07999357  0.27224867    -0.74400
O2136       O  0.97369197  0.05010000  0.29747528    -0.53300
C2137       C  0.95496760  0.07516672  0.29067832     0.79300
O2138       O  0.93339077  0.43672539  0.21329130    -0.59000
O2139       O  0.96145261  0.46464929  0.18806759    -0.52000
C2140       C  0.93665325  0.44568553  0.19515136     0.71400
O2141       O  0.95189008  0.42654475  0.27599010    -0.73500
O2142       O  0.97733004  0.45907516  0.29944885    -0.54100
C2143       C  0.96020807  0.43260592  0.29379314     0.77400
O2144       O  0.94029690  0.06754690  0.20680911    -0.58700
O2145       O  0.97208037  0.03988675  0.18340150    -0.51800
C2146       C  0.94687215  0.05963519  0.18874812     0.74000
Zr2147     Zr  0.96122863  0.05572928  0.24021701     2.54700
O2148       O  0.89796706  0.05409158  0.24253734    -0.79200
O2149       O  0.96384332  0.11685357  0.23616203    -0.92700
Zr2150     Zr  0.96106748  0.45114730  0.24381616     2.64700
O2151       O  0.89840944  0.45205308  0.24972079    -0.97600
O2152       O  0.96711451  0.39004081  0.24141380    -0.79700
O2153       O  0.95893541  0.00768929  0.26188736    -0.83000
O2154       O  0.95901579  0.00540008  0.22250588    -2.17700
O2155       O  0.58931047  0.06011652  0.20820694    -0.66400
O2156       O  0.55860922  0.03279458  0.18448143    -0.51000
C2157       C  0.58459831  0.05057067  0.19049849     0.72300
O2158       O  0.56821030  0.43340274  0.27438228    -0.59300
O2159       O  0.54365449  0.46585856  0.29841207    -0.51300
C2160       C  0.56157334  0.43970062  0.29259645     0.74100
O2161       O  0.57972047  0.43908529  0.20837065    -0.70700
O2162       O  0.54719640  0.46288448  0.18384854    -0.49400
C2163       C  0.57330861  0.44478827  0.18996382     0.75500
O2164       O  0.57363197  0.07703829  0.27093983    -0.66100
O2165       O  0.54493487  0.05049199  0.29605788    -0.53300
C2166       C  0.56511094  0.07439712  0.28920203     0.73900
Zr2167     Zr  0.56139424  0.05129034  0.23967707     2.77500
O2168       O  0.62405698  0.05141218  0.24500396    -0.96800
O2169       O  0.55406097  0.11142641  0.23291403    -0.77600
Zr2170     Zr  0.55678753  0.45378686  0.24119221     2.70100
O2171       O  0.62001368  0.45471666  0.24296026    -0.78900
O2172       O  0.55212638  0.39259395  0.24129212    -0.98000
Zr2173     Zr  0.50847787  0.00615013  0.28022494     2.21500
Zr2174     Zr  0.51076608  0.00123934  0.20102811     2.11100
O2175       O  0.56078739  0.00095157  0.22146079    -2.46600
O2176       O  0.56070573  0.00237141  0.26033026    -0.78700
O2177       O  0.51168069  0.05294904  0.21904036    -0.70900
O2178       O  0.50627106  0.45763669  0.26073925    -2.31800
O2179       O  0.50988007  0.05397889  0.25842967    -2.28000
O2180       O  0.50528653  0.45177002  0.22197269    -0.72600
H2181       H  0.93798621  0.00643961  0.21494264     0.79400
H2182       H  0.50680510  0.43756751  0.26883930     0.80500
H2183       H  0.58209550  0.99916317  0.21394676     0.82700
H2184       H  0.50994573  0.07481780  0.26562374     0.80300
H2185       H  0.98614532  0.38643940  0.23168796     0.43300
H2186       H  0.54427658  0.38703311  0.22788548     0.42300
H2187       H  0.62575984  0.47886513  0.24440713     0.42000
H2188       H  0.63371655  0.03505438  0.23543552     0.39900
H2189       H  0.57667891  0.11875146  0.22725132     0.43000
H2190       H  0.98332514  0.12384630  0.24458836     0.37800
H2191       H  0.88975731  0.07158060  0.23308577     0.43900
H2192       H  0.89222268  0.42808361  0.25200392     0.40400
H2193       H  0.63189555  0.07367582  0.23996045     0.45300
H2194       H  0.94266273  0.12552322  0.24292229     0.44000
H2195       H  0.89536438  0.46267196  0.26276483     0.44100
H2196       H  0.57651307  0.38438500  0.24190724     0.44500
O2197       O  0.94649879  0.31224605  0.95085792    -0.74400
O2198       O  0.91137135  0.28706911  0.97361714    -0.53300
C2199       C  0.91606821  0.30551604  0.95824911     0.79300
O2200       O  0.57273193  0.18143639  0.93948426    -0.59000
O2201       O  0.61574636  0.20291731  0.95852381    -0.52000
C2202       C  0.60498573  0.18637722  0.94352308     0.71400
O2203       O  0.94761105  0.20395975  0.94044527    -0.73500
O2204       O  0.91101986  0.22250970  0.96473196    -0.54100
C2205       C  0.91713642  0.21164156  0.94724225     0.77400
O2206       O  0.57430335  0.30933745  0.95000027    -0.58700
O2207       O  0.61725441  0.27536459  0.96242912    -0.51800
C2208       C  0.60585864  0.29851843  0.95038756     0.74000
Zr2209     Zr  0.51807162  0.29761035  0.96472077     2.54700
O2210       O  0.51642568  0.33908511  0.93790992    -0.79200
O2211       O  0.51466753  0.34995781  0.98317395    -0.92700
Zr2212     Zr  0.51559200  0.19885868  0.95224275     2.64700
O2213       O  0.00612756  0.19805373  0.91725557    -0.97600
O2214       O  0.50781918  0.13955025  0.94447925    -0.79700
O2215       O  0.97527038  0.25267606  0.95866690    -0.83000
O2216       O  0.55009543  0.24714500  0.95719147    -2.17700
O2217       O  0.58157012  0.28214853  0.03270084    -0.66400
O2218       O  0.62088419  0.26175134  0.01028507    -0.51000
C2219       C  0.61289963  0.27592314  0.02679691     0.72300
O2220       O  0.95782524  0.17125296  0.02257648    -0.59300
O2221       O  0.91639713  0.20313280  0.00738767    -0.51300
C2222       C  0.92588914  0.17926406  0.01906586     0.74100
O2223       O  0.57584524  0.15639665  0.01760506    -0.70700
O2224       O  0.61763204  0.18942029  0.00311596    -0.49400
C2225       C  0.60783429  0.16435327  0.01429906     0.75500
O2226       O  0.96243610  0.30869685  0.03075043    -0.66100
O2227       O  0.91917990  0.27969130  0.01570937    -0.53300
C2228       C  0.93021364  0.30153068  0.02808164     0.73900
Zr2229     Zr  0.52242645  0.27614719  0.02085403     2.77500
O2230       O  0.51736404  0.26692814  0.05625892    -0.96800
O2231       O  0.52943391  0.33679583  0.02467433    -0.77600
Zr2232     Zr  0.51824530  0.17747760  0.00882760     2.70100
O2233       O  0.51869919  0.15576646  0.04250857    -0.78900
O2234       O  0.51476609  0.12126649  0.99491900    -0.98000
Zr2235     Zr  0.94721499  0.24632668  0.98979523     2.21500
Zr2236     Zr  0.58686439  0.23477443  0.98469171     2.11100
O2237       O  0.55352177  0.22535832  0.01424683    -2.46600
O2238       O  0.98386757  0.23770616  0.01724468    -0.78700
O2239       O  0.55569757  0.28611800  0.99160405    -0.70900
O2240       O  0.97689044  0.19449360  0.98333691    -2.31800
O2241       O  0.97959777  0.29684714  0.99191786    -2.28000
O2242       O  0.55163777  0.18622513  0.97960317    -0.72600
H2243       H  0.56346607  0.24968332  0.94516128     0.79400
H2244       H  0.96093422  0.17585272  0.98245561     0.80500
H2245       H  0.56851572  0.22040065  0.02524912     0.82700
H2246       H  0.96473471  0.31629960  0.99396502     0.80300
H2247       H  0.99001150  0.13521769  0.94130317     0.43300
H2248       H  0.53449890  0.12000213  0.98543768     0.42300
H2249       H  0.00762794  0.18708631  0.05183099     0.42000
H2250       H  0.52674430  0.24386114  0.05844945     0.39900
H2251       H  0.50829160  0.34443173  0.03187202     0.43000
H2252       H  0.98508759  0.36961260  0.96972248     0.37800
H2253       H  0.00185964  0.35442943  0.93185357     0.43900
H2254       H  0.50107619  0.23524674  0.91670381     0.40400
H2255       H  0.53462558  0.28218859  0.06209630     0.45300
H2256       H  0.53722991  0.36118401  0.98057033     0.44000
H2257       H  0.54049495  0.22506204  0.91519489     0.44100
H2258       H  0.52160289  0.10594647  0.00585717     0.44500
N2259       N  0.79164667  0.30323623  0.83339493    -0.35700
N2260       N  0.74565285  0.29529027  0.86644751    -0.56300
N2261       N  0.69826477  0.34289149  0.84874116    -0.35700
N2262       N  0.74475137  0.34711998  0.81415937    -0.56300
C2263       C  0.80339733  0.27263583  0.83975799     0.27900
C2264       C  0.81107066  0.31287278  0.81764046     0.27900
C2265       C  0.68193444  0.32496408  0.86303763     0.27900
C2266       C  0.67850635  0.34070889  0.83246867     0.27900
C2267       C  0.76852248  0.27045785  0.87068085     0.36500
C2268       C  0.72735546  0.30264427  0.88299458     0.36500
C2269       C  0.77386685  0.36009647  0.80598300     0.36500
C2270       C  0.71782125  0.36720155  0.80901340     0.36500
C2271       C  0.83228468  0.26394562  0.82819633    -0.21000
C2272       C  0.83688968  0.28914192  0.81427159    -0.21000
C2273       C  0.65349070  0.30857347  0.85520465    -0.21000
C2274       C  0.65037953  0.31989002  0.83605726    -0.21000
C2275       C  0.76544297  0.26218882  0.89048952    -0.22000
C2276       C  0.73957527  0.28248878  0.89835355    -0.22000
C2277       C  0.76523665  0.38929353  0.79542391    -0.22000
C2278       C  0.72932714  0.39323053  0.79691828    -0.22000
C2279       C  0.78966424  0.25380192  0.85632347    -0.17400
C2280       C  0.80690268  0.34360237  0.80698819    -0.17400
C2281       C  0.68356627  0.36058464  0.81546338    -0.17400
C2282       C  0.69504401  0.32043189  0.88225925    -0.17400
H2283       H  0.85011903  0.24301852  0.83012855     0.15500
H2284       H  0.85731429  0.29022871  0.80316765     0.15500
H2285       H  0.63634616  0.29084733  0.86262206     0.15500
H2286       H  0.63008140  0.31339820  0.82587017     0.15500
H2287       H  0.77958492  0.24292714  0.89841402     0.13800
H2288       H  0.72888609  0.27954741  0.91304779     0.13800
H2289       H  0.78266263  0.40559943  0.78714247     0.13800
H2290       H  0.71375443  0.41321148  0.79036681     0.13800
H2291       H  0.77314517  0.31857742  0.84002374     0.27100
H2292       H  0.72011491  0.35806669  0.85056764     0.27100
N2293       N  0.74184500  0.18953607  0.86271928    -0.35700
N2294       N  0.79454733  0.19623053  0.82598745    -0.56300
N2295       N  0.73928464  0.16224016  0.80539624    -0.35700
N2296       N  0.69189261  0.15671838  0.83909452    -0.56300
C2297       C  0.77362815  0.19662819  0.86969609     0.27900
C2298       C  0.72646722  0.16840605  0.87587233     0.27900
C2299       C  0.76541083  0.16461065  0.79180143     0.27900
C2300       C  0.70880262  0.15919997  0.79571691     0.27900
C2301       C  0.81114269  0.19795509  0.84332914     0.36500
C2302       C  0.81145529  0.17226063  0.81558837     0.36500
C2303       C  0.67522761  0.15337159  0.85664641     0.36500
C2304       C  0.66858447  0.15027112  0.82499593     0.36500
C2305       C  0.77934727  0.17933267  0.88718245    -0.21000
C2306       C  0.74870457  0.16246387  0.89154372    -0.21000
C2307       C  0.75141023  0.16428446  0.77310250    -0.21000
C2308       C  0.71572041  0.16092817  0.77555605    -0.21000
C2309       C  0.83791542  0.17450755  0.84432981    -0.22000
C2310       C  0.83892779  0.15883267  0.82631019    -0.22000
C2311       C  0.64095189  0.14436619  0.85382000    -0.22000
C2312       C  0.63683062  0.14189237  0.83377244    -0.22000
C2313       C  0.79787689  0.21627449  0.85919101    -0.17400
C2314       C  0.69139068  0.15801051  0.87497653    -0.17400
C2315       C  0.67558177  0.15151473  0.80439618    -0.17400
C2316       C  0.80137646  0.16253148  0.79661961    -0.17400
H2317       H  0.80264294  0.17969634  0.89600775     0.15500
H2318       H  0.74342335  0.14723933  0.90457029     0.15500
H2319       H  0.76555305  0.16485322  0.75921918     0.15500
H2320       H  0.69713031  0.15854521  0.76379386     0.15500
H2321       H  0.85447500  0.16915625  0.85679885     0.13800
H2322       H  0.85654678  0.13872671  0.82196509     0.13800
H2323       H  0.62109928  0.13971351  0.86493209     0.13800
H2324       H  0.61301409  0.13485129  0.82658128     0.13800
H2325       H  0.73089622  0.20061516  0.85017621     0.27100
H2326       H  0.74320624  0.15870415  0.82040486     0.27100
O2327       O  0.94688302  0.44001811  0.69419457    -0.74400
O2328       O  0.96556068  0.40119615  0.71691355    -0.53300
C2329       C  0.95268756  0.40949691  0.70010022     0.79300
O2330       O  0.56865737  0.05484730  0.70516717    -0.59000
O2331       O  0.53271922  0.09379036  0.71945468    -0.52000
C2332       C  0.55829157  0.08555088  0.70806156     0.71400
O2333       O  0.56706279  0.44172593  0.70708516    -0.73500
O2334       O  0.53687859  0.40196681  0.72469092    -0.54100
C2335       C  0.55966591  0.41086456  0.71161982     0.77400
O2336       O  0.94229899  0.04925643  0.69356003    -0.58700
O2337       O  0.96127411  0.09103591  0.71362616    -0.51800
C2338       C  0.94711519  0.08045357  0.69782584     0.74000
Zr2339     Zr  0.95024531  0.49705313  0.70705194     2.54700
O2340       O  0.95190001  0.49723562  0.67114349    -0.79200
O2341       O  0.88702445  0.49277203  0.70744923    -0.92700
Zr2342     Zr  0.54909566  0.49870807  0.71668380     2.64700
O2343       O  0.55082059  0.50108920  0.68081630    -0.97600
O2344       O  0.61190017  0.49660418  0.72061270    -0.79700
O2345       O  0.49971711  0.46371702  0.71458374    -0.83000
O2346       O  0.49951985  0.02878777  0.71125747    -2.17700
O2347       O  0.90800760  0.05412840  0.76591726    -0.66400
O2348       O  0.94398362  0.09571083  0.75480675    -0.51000
C2349       C  0.91460077  0.08533430  0.76191863     0.72300
O2350       O  0.56141397  0.44884792  0.78289366    -0.59300
O2351       O  0.53705991  0.40439935  0.76736139    -0.51300
C2352       C  0.55943909  0.41729524  0.77925793     0.74100
O2353       O  0.56459239  0.05302581  0.77403343    -0.70700
O2354       O  0.53520150  0.09501503  0.75813663    -0.49400
C2355       C  0.56133425  0.08374209  0.76812927     0.75500
O2356       O  0.91167988  0.44512789  0.77188920    -0.66100
O2357       O  0.94802726  0.40366450  0.76033993    -0.53300
C2358       C  0.92030207  0.41417636  0.76931639     0.73900
Zr2359     Zr  0.93378520  0.50064749  0.76443819     2.77500
O2360       O  0.93174214  0.50511708  0.80013490    -0.96800
O2361       O  0.87060073  0.49637204  0.76426379    -0.77600
Zr2362     Zr  0.53420093  0.50213203  0.77510592     2.70100
O2363       O  0.51017284  0.51058611  0.80804813    -0.78900
O2364       O  0.58565522  0.49932952  0.79583163    -0.98000
Zr2365     Zr  0.49466913  0.43208285  0.74477171     2.21500
Zr2366     Zr  0.49189301  0.06281731  0.73998572     2.11100
O2367       O  0.48617936  0.03248755  0.77059268    -2.46600
O2368       O  0.48588952  0.46564270  0.77348464    -0.78700
O2369       O  0.94169526  0.02904442  0.73607096    -0.70900
O2370       O  0.54409699  0.46817444  0.74679747    -2.31800
O2371       O  0.94179242  0.46575166  0.73650716    -2.28000
O2372       O  0.54382330  0.03016621  0.74402534    -0.72600
H2373       H  0.50233417  0.04236107  0.69944479     0.79400
H2374       H  0.56549564  0.45533306  0.74769864     0.80500
H2375       H  0.48324619  0.04769451  0.78152067     0.82700
H2376       H  0.92207747  0.45112899  0.73477911     0.80300
H2377       H  0.62131107  0.50371082  0.70758277     0.43300
H2378       H  0.60573019  0.50262188  0.78677097     0.42300
H2379       H  0.51770636  0.53353243  0.81165425     0.42000
H2380       H  0.90658339  0.50656205  0.80340035     0.39900
H2381       H  0.86532369  0.48552563  0.75158125     0.43000
H2382       H  0.88044441  0.49317994  0.69338943     0.37800
H2383       H  0.92755223  0.50154485  0.66710006     0.43900
H2384       H  0.57081791  0.48658266  0.67696574     0.40400
H2385       H  0.93892975  0.48245419  0.80498143     0.45300
H2386       H  0.87877793  0.51477062  0.71255580     0.44000
H2387       H  0.53002552  0.48838824  0.67679290     0.44100
H2388       H  0.58484733  0.51988897  0.80397727     0.44500
N2389       N  0.76379084  0.09597653  0.07339824    -0.35700
N2390       N  0.71140796  0.08212096  0.10286575    -0.56300
N2391       N  0.76504995  0.08928239  0.13376439    -0.35700
N2392       N  0.81732881  0.10015647  0.10334422    -0.56300
C2393       C  0.73655873  0.09009243  0.06156617     0.27900
C2394       C  0.79221280  0.09933956  0.06176891     0.27900
C2395       C  0.73745440  0.07987353  0.14505271     0.27900
C2396       C  0.79429639  0.08604671  0.14478830     0.27900
C2397       C  0.69017110  0.08662350  0.08719876     0.36500
C2398       C  0.69059089  0.08088265  0.11901689     0.36500
C2399       C  0.83564313  0.11212901  0.08776566     0.36500
C2400       C  0.83716978  0.10507513  0.11929983     0.36500
C2401       C  0.74790066  0.08908424  0.04212427    -0.21000
C2402       C  0.78318425  0.09476542  0.04225032    -0.21000
C2403       C  0.74921768  0.07233074  0.16392615    -0.21000
C2404       C  0.78500705  0.07540910  0.16360340    -0.21000
C2405       C  0.65574726  0.08680262  0.09324912    -0.22000
C2406       C  0.65588799  0.08230239  0.11326269    -0.22000
C2407       C  0.86751214  0.12435032  0.09383416    -0.22000
C2408       C  0.86860448  0.11953728  0.11381299    -0.22000
C2409       C  0.70131085  0.09176470  0.06750432    -0.17400
C2410       C  0.82473400  0.11117715  0.06801166    -0.17400
C2411       C  0.82892195  0.09357144  0.13849314    -0.17400
C2412       C  0.70197350  0.07849575  0.13890390    -0.17400
H2413       H  0.73205265  0.08630991  0.02916303     0.15500
H2414       H  0.79991452  0.09714529  0.02937135     0.15500
H2415       H  0.73378548  0.06508846  0.17669533     0.15500
H2416       H  0.80211015  0.07101033  0.17595398     0.15500
H2417       H  0.63287993  0.08973726  0.08419211     0.13800
H2418       H  0.63271810  0.08091002  0.12241097     0.13800
H2419       H  0.88811179  0.13512689  0.08480476     0.13800
H2420       H  0.89011829  0.12579187  0.12323612     0.13800
H2421       H  0.76204153  0.10387675  0.08782711     0.27100
H2422       H  0.76330522  0.09964215  0.11977313     0.27100
N2423       N  0.76720588  0.35800517  0.08395821    -0.35700
N2424       N  0.81519762  0.38986461  0.11031072    -0.56300
N2425       N  0.75756136  0.40392235  0.13721065    -0.35700
N2426       N  0.70900463  0.37244808  0.11054560    -0.56300
C2427       C  0.79265165  0.36974885  0.07188915     0.27900
C2428       C  0.73820894  0.35657422  0.07303644     0.27900
C2429       C  0.78482359  0.40805508  0.14965437     0.27900
C2430       C  0.72743802  0.40666175  0.14787820     0.27900
C2431       C  0.83776105  0.38228694  0.09557244     0.36500
C2432       C  0.83443588  0.40085482  0.12537745     0.36500
C2433       C  0.69113016  0.35664282  0.09627821     0.36500
C2434       C  0.68519351  0.38700278  0.12261977     0.36500
C2435       C  0.77952563  0.37732894  0.05346534    -0.21000
C2436       C  0.74444927  0.37044781  0.05448059    -0.21000
C2437       C  0.77153570  0.41341456  0.16847664    -0.21000
C2438       C  0.73563338  0.41331743  0.16727280    -0.21000
C2439       C  0.87150753  0.38902712  0.10094478    -0.22000
C2440       C  0.86941099  0.40155582  0.11967874    -0.22000
C2441       C  0.65571019  0.36206059  0.09897854    -0.22000
C2442       C  0.65192924  0.38097955  0.11571300    -0.22000
C2443       C  0.82779273  0.37117052  0.07694467    -0.17400
C2444       C  0.70700719  0.34157673  0.07954929    -0.17400
C2445       C  0.69275596  0.40326010  0.14060146    -0.17400
C2446       C  0.82130535  0.40821984  0.14453613    -0.17400
H2447       H  0.79365838  0.38694315  0.04074063     0.15500
H2448       H  0.72601141  0.37354842  0.04263208     0.15500
H2449       H  0.78616860  0.41748280  0.18175709     0.15500
H2450       H  0.71765762  0.41715538  0.17944436     0.15500
H2451       H  0.89493921  0.38623961  0.09207610     0.13800
H2452       H  0.89139580  0.40985571  0.12812615     0.13800
H2453       H  0.63479102  0.35457729  0.08946521     0.13800
H2454       H  0.62736350  0.38923524  0.12204747     0.13800
H2455       H  0.77028958  0.34772563  0.09808758     0.27100
H2456       H  0.75897217  0.40189751  0.12200165     0.27100
C2457       C  0.59154780  0.10560828  0.77291275    -0.04400
C2458       C  0.62504327  0.09028219  0.77362800    -0.01500
C2459       C  0.65142142  0.10471892  0.78469877     0.03400
C2460       C  0.64783617  0.13802360  0.79139186    -0.04400
C2461       C  0.61639544  0.15594521  0.78780182    -0.01500
C2462       C  0.58764545  0.13915855  0.77946339     0.03400
C2463       C  0.63268021  0.05920001  0.76327257     0.38100
C2464       C  0.61284648  0.19063608  0.79407035     0.38100
C2465       C  0.55386744  0.15556024  0.77881168     0.36500
C2466       C  0.67975943  0.08338973  0.79164101     0.36500
N2467       N  0.52675852  0.16848224  0.77838764    -0.38300
N2468       N  0.70118790  0.06575814  0.79793058    -0.38300
N2469       N  0.60993460  0.21836704  0.79904856    -0.37800
N2470       N  0.63950280  0.03464639  0.75497785    -0.37800
C2471       C  0.82859304  0.14680496  0.78311556    -0.04400
C2472       C  0.82309371  0.11508634  0.77432588    -0.01500
C2473       C  0.85055889  0.09826194  0.76452249     0.03400
C2474       C  0.88522156  0.10977465  0.76595076    -0.04400
C2475       C  0.89041318  0.14295679  0.77271176    -0.01500
C2476       C  0.86203412  0.16172385  0.78069244     0.03400
C2477       C  0.79019200  0.09782381  0.77639128     0.38100
C2478       C  0.92459304  0.15810877  0.77153536     0.38100
C2479       C  0.86780681  0.19609186  0.78694600     0.36500
C2480       C  0.84268537  0.06969095  0.75217083     0.36500
N2481       N  0.87313494  0.22340820  0.79187190    -0.38300
N2482       N  0.83604215  0.04750452  0.74197457    -0.38300
N2483       N  0.95152610  0.17093095  0.77044785    -0.37800
N2484       N  0.76424982  0.08332891  0.77768131    -0.37800
C2485       C  0.65184752  0.37493332  0.80561861    -0.04400
C2486       C  0.64189890  0.36410296  0.78677557    -0.01500
C2487       C  0.60998887  0.37532393  0.77847578     0.03400
C2488       C  0.58706162  0.39655578  0.78928858    -0.04400
C2489       C  0.59620894  0.40518966  0.80880244    -0.01500
C2490       C  0.62889985  0.39584726  0.81647725     0.03400
C2491       C  0.66468131  0.34135904  0.77598586     0.38100
C2492       C  0.57204913  0.42429257  0.82106662     0.38100
C2493       C  0.63959982  0.40901411  0.83533672     0.36500
C2494       C  0.60163655  0.36574039  0.75860353     0.36500
N2495       N  0.64833300  0.41977843  0.85025231    -0.38300
N2496       N  0.59555666  0.35744554  0.74274429    -0.38300
N2497       N  0.55293063  0.43948578  0.83091851    -0.37800
N2498       N  0.68321794  0.32322107  0.76759958    -0.37800
C2499       C  0.83819924  0.35780501  0.79642471    -0.04400
C2500       C  0.86882746  0.36521577  0.80706518    -0.01500
C2501       C  0.89761557  0.38014425  0.79742156     0.03400
C2502       C  0.89530568  0.38966760  0.77746518    -0.04400
C2503       C  0.86522221  0.38186212  0.76672922    -0.01500
C2504       C  0.83789016  0.36378452  0.77585545     0.03400
C2505       C  0.87083677  0.35807973  0.82802039     0.38100
C2506       C  0.86116553  0.39476311  0.74677895     0.38100
C2507       C  0.80969959  0.35110592  0.76406194     0.36500
C2508       C  0.92901455  0.38759316  0.80824939     0.36500
N2509       N  0.78722770  0.34076363  0.75471422    -0.38300
N2510       N  0.95418743  0.39355326  0.81671852    -0.38300
N2511       N  0.85778826  0.40546800  0.73096406    -0.37800
N2512       N  0.87297893  0.35198899  0.84467258    -0.37800
C2513       C  0.63454409  0.14423210  0.02564398    -0.04400
C2514       C  0.66021215  0.16109916  0.03648119    -0.01500
C2515       C  0.67943800  0.14404220  0.05106043     0.03400
C2516       C  0.67688365  0.10884574  0.05343475    -0.04400
C2517       C  0.65291612  0.09102349  0.04203612    -0.01500
C2518       C  0.63134710  0.10867068  0.02841915     0.05000
C2519       C  0.66865164  0.19577046  0.03242445     0.38100
C2520       C  0.64975467  0.05486435  0.04495920     0.38100
C2521       C  0.60686050  0.08993195  0.01679986     0.36500
C2522       C  0.70089992  0.16306713  0.06444148     0.36500
N2523       N  0.58755556  0.07468830  0.00750325    -0.38300
N2524       N  0.71734139  0.17798387  0.07549868    -0.38300
N2525       N  0.64732484  0.02605884  0.04764976    -0.37800
N2526       N  0.67834157  0.22279691  0.02935992    -0.37800
C2527       C  0.89789671  0.16028178  0.02950434    -0.04400
C2528       C  0.86665446  0.17715021  0.03529014    -0.01500
C2529       C  0.84235875  0.16055616  0.04745179     0.03400
C2530       C  0.84798100  0.12668217  0.05304182    -0.04400
C2531       C  0.87709788  0.10876508  0.04592816    -0.01500
C2532       C  0.90230110  0.12551830  0.03433161     0.03400
C2533       C  0.85924094  0.21183359  0.02935442     0.38100
C2534       C  0.88135465  0.07330692  0.05112362     0.38100
C2535       C  0.93220421  0.10646115  0.02724411     0.36500
C2536       C  0.81231745  0.17896230  0.05504628     0.36500
N2537       N  0.95577053  0.09059543  0.02181196    -0.38300
N2538       N  0.78871776  0.19410171  0.06108827    -0.38300
N2539       N  0.88440505  0.04505198  0.05536503    -0.37800
N2540       N  0.85264440  0.23928525  0.02457812    -0.37800
C2541       C  0.64122033  0.28575691  0.04053867    -0.04400
C2542       C  0.67422305  0.29673848  0.03369633    -0.01500
C2543       C  0.69884169  0.30813047  0.04730890     0.03400
C2544       C  0.68795674  0.31615566  0.06678923    -0.04400
C2545       C  0.66009142  0.29637007  0.07430863    -0.01500
C2546       C  0.63652616  0.28149593  0.06118261     0.03400
C2547       C  0.68466216  0.29269871  0.01327472     0.38100
C2548       C  0.65845944  0.28729356  0.09509184     0.38100
C2549       C  0.60989859  0.25896891  0.06889032     0.36500
C2550       C  0.73548297  0.30278453  0.04270589     0.36500
N2551       N  0.58946620  0.24037245  0.07527172    -0.38300
N2552       N  0.76460745  0.29798712  0.03900793    -0.38300
N2553       N  0.65711708  0.27953950  0.11158233    -0.37800
N2554       N  0.69366532  0.28805998  0.99720983    -0.37800
C2555       C  0.90397352  0.31973506  0.04031316    -0.04400
C2556       C  0.88693155  0.30263141  0.05594738    -0.01500
C2557       C  0.86178663  0.31955441  0.06754259     0.03400
C2558       C  0.85400368  0.35404210  0.06395362    -0.04400
C2559       C  0.87195053  0.37160160  0.04880692    -0.01500
C2560       C  0.89672758  0.35442819  0.03690582     0.03400
C2561       C  0.89656056  0.26803714  0.06078826     0.38100
C2562       C  0.86543551  0.40739217  0.04580722     0.38100
C2563       C  0.91477902  0.37245594  0.02117438     0.36500
C2564       C  0.84446561  0.30161381  0.08360639     0.36500
N2565       N  0.92914746  0.38694463  0.00864109    -0.38300
N2566       N  0.83078945  0.28739403  0.09648604    -0.38300
N2567       N  0.86025726  0.43599357  0.04350643    -0.37800
N2568       N  0.90436758  0.24055840  0.06485245    -0.37800
C2569       C  0.62838296  0.31100698  0.93373584    -0.04400
C2570       C  0.61434886  0.31276223  0.91450221    -0.01500
C2571       C  0.63470425  0.32488021  0.89878663     0.03400
C2572       C  0.67135979  0.32460109  0.90033358    -0.04400
C2573       C  0.68428772  0.32950581  0.91959919    -0.01500
C2574       C  0.66236141  0.32360258  0.93632348     0.03400
C2575       C  0.57895259  0.30263508  0.91033826     0.38100
C2576       C  0.71815133  0.34468979  0.92205704     0.38100
C2577       C  0.67333351  0.33358720  0.95566945     0.36500
C2578       C  0.61744570  0.34613699  0.88427546     0.36500
N2579       N  0.68193361  0.34327656  0.97084776    -0.38300
N2580       N  0.60331001  0.36342673  0.87299679    -0.38300
N2581       N  0.74502987  0.35716861  0.92399740    -0.37800
N2582       N  0.55085453  0.29466079  0.90666300    -0.37800
C2583       C  0.88335965  0.31563063  0.94775332    -0.04400
C2584       C  0.85023688  0.30869756  0.95661925    -0.01500
C2585       C  0.82213221  0.30072246  0.94431426     0.03400
C2586       C  0.82944703  0.29409814  0.92433765    -0.04400
C2587       C  0.85326439  0.31762501  0.91643135    -0.01500
C2588       C  0.88312717  0.32532130  0.92755045     0.03400
C2589       C  0.84511078  0.30905117  0.97781965     0.38100
C2590       C  0.84521904  0.33456027  0.89809725     0.38100
C2591       C  0.91175596  0.34350894  0.91855244     0.36500
C2592       C  0.78686663  0.29870546  0.95185247     0.36500
N2593       N  0.93435260  0.35835275  0.91119014    -0.38300
N2594       N  0.75864753  0.29740534  0.95797432    -0.38300
N2595       N  0.83772689  0.34829536  0.88360035    -0.37800
N2596       N  0.84115676  0.30898213  0.99475297    -0.37800
C2597       C  0.63117913  0.17528270  0.92845912    -0.04400
C2598       C  0.63050203  0.14280728  0.91983154    -0.01500
C2599       C  0.65187339  0.13568025  0.90308797     0.03400
C2600       C  0.66972141  0.16224884  0.89334558    -0.04400
C2601       C  0.66776602  0.19474582  0.90134970    -0.01500
C2602       C  0.65321115  0.19982882  0.92000200     0.03400
C2603       C  0.60923740  0.11651671  0.92865086     0.38100
C2604       C  0.67642779  0.22344885  0.88902996     0.38100
C2605       C  0.66446371  0.22847888  0.93112031     0.36500
C2606       C  0.65505668  0.10158932  0.89579777     0.36500
N2607       N  0.67594774  0.24982530  0.94043669    -0.38300
N2608       N  0.65776624  0.07431323  0.89001837    -0.38300
N2609       N  0.68196346  0.24480281  0.87775141    -0.37800
N2610       N  0.59234328  0.09540927  0.93568653    -0.37800
C2611       C  0.88713621  0.21269946  0.93358511    -0.04400
C2612       C  0.85291546  0.21076792  0.94133802    -0.01500
C2613       C  0.82675356  0.23154314  0.93313640     0.03400
C2614       C  0.83653088  0.25706222  0.91942236    -0.04400
C2615       C  0.86512153  0.24841813  0.90701763    -0.01500
C2616       C  0.89137193  0.22679875  0.91446280     0.03400
C2617       C  0.84544166  0.18964766  0.95842484     0.38100
C2618       C  0.86860788  0.26294550  0.88742696     0.38100
C2619       C  0.92302983  0.22147522  0.90309276     0.36500
C2620       C  0.79061508  0.22688116  0.93863006     0.36500
N2621       N  0.94782418  0.21745706  0.89353464    -0.38300
N2622       N  0.76170589  0.22232122  0.94279798    -0.38300
N2623       N  0.87207293  0.27408135  0.87168994    -0.37800
N2624       N  0.83952076  0.17295022  0.97215344    -0.37800
C2625       C  0.90715650  0.43569893  0.18234162    -0.04400
C2626       C  0.90410042  0.40222941  0.17573467    -0.01500
C2627       C  0.87436347  0.39233043  0.16509961     0.03400
C2628       C  0.84822949  0.41636955  0.15990862    -0.04400
C2629       C  0.85023832  0.44915430  0.16778767    -0.01500
C2630       C  0.87843506  0.45797424  0.17986258     0.03400
C2631       C  0.93112304  0.37773206  0.18041193     0.38100
C2632       C  0.82753735  0.97775023  0.15608488     0.38100
C2633       C  0.87581838  0.99484582  0.18622819     0.36500
C2634       C  0.87105006  0.35751239  0.15904539     0.36500
N2635       N  0.87177072  0.01967768  0.19479180    -0.38300
N2636       N  0.86851693  0.32977218  0.15412377    -0.38300
N2637       N  0.80751622  0.99722283  0.15012208    -0.37800
N2638       N  0.95264873  0.35820653  0.18427632    -0.37800
C2639       C  0.66186110  0.41392101  0.15320408    -0.04400
C2640       C  0.64191714  0.44286656  0.14810674    -0.01500
C2641       C  0.61063594  0.45082214  0.15850408     0.03400
C2642       C  0.60010252  0.43140779  0.17529790    -0.04400
C2643       C  0.61935843  0.40142008  0.17961586    -0.01500
C2644       C  0.64950414  0.39261178  0.16850446     0.03400
C2645       C  0.65375517  0.46473885  0.13210653     0.38100
C2646       C  0.60748819  0.37834214  0.19495168     0.38100
C2647       C  0.66759071  0.36102406  0.17257615     0.36500
C2648       C  0.58975144  0.47918150  0.15166596     0.36500
N2649       N  0.68199632  0.33580015  0.17576249    -0.38300
N2650       N  0.57339670  0.50163327  0.14564665    -0.38300
N2651       N  0.59853663  0.35924357  0.20696801    -0.37800
N2652       N  0.66328993  0.48262443  0.11958551    -0.37800
C2653       C  0.92107707  0.07191556  0.17360628    -0.04400
C2654       C  0.90052584  0.10126868  0.17720797    -0.01500
C2655       C  0.86936540  0.10736446  0.16671912     0.03400
C2656       C  0.85951382  0.08558696  0.15150137    -0.04400
C2657       C  0.88187730  0.05839961  0.14644538    -0.01500
C2658       C  0.91231094  0.05150459  0.15733657     0.03400
C2659       C  0.91224784  0.12626479  0.19105578     0.38100
C2660       C  0.87348200  0.03735184  0.12978973     0.38100
C2661       C  0.93347394  0.02249942  0.15188519     0.36500
C2662       C  0.84752619  0.13615341  0.17161994     0.36500
N2663       N  0.94663157  0.48967728  0.14791598    -0.38300
N2664       N  0.83015573  0.15900935  0.17586024    -0.38300
N2665       N  0.85902579  0.50533300  0.11922993    -0.37800
N2666       N  0.92174517  0.14655508  0.20183688    -0.37800
C2667       C  0.61401022  0.05791432  0.17696035    -0.04400
C2668       C  0.61851383  0.09057391  0.16889714    -0.01500
C2669       C  0.64922876  0.09839055  0.15821145     0.03400
C2670       C  0.67408147  0.07271669  0.15409814    -0.04400
C2671       C  0.67014217  0.04052346  0.16287996    -0.01500
C2672       C  0.64152808  0.03410217  0.17540243     0.03400
C2673       C  0.59191061  0.11621807  0.17196758     0.38100
C2674       C  0.69595369  0.01417652  0.15948194     0.38100
C2675       C  0.64268476  0.00462853  0.18824201     0.36500
C2676       C  0.65485041  0.13250557  0.15087719     0.36500
N2677       N  0.64417073  0.48280507  0.20044973    -0.38300
N2678       N  0.65938012  0.15970548  0.14501891    -0.38300
N2679       N  0.71745244  0.49308615  0.15952626    -0.37800
N2680       N  0.57060459  0.13662143  0.17441476    -0.37800
C2681       C  0.57628069  0.11352393  0.69697553    -0.04400
C2682       C  0.61290161  0.11288642  0.69380173    -0.01500
C2683       C  0.62913113  0.13816551  0.68207252     0.03400
C2684       C  0.60898893  0.16412748  0.67336812    -0.04400
C2685       C  0.57292487  0.16563423  0.67706439    -0.01500
C2686       C  0.55681579  0.14128205  0.68926656     0.03400
C2687       C  0.63446026  0.08796939  0.70379037     0.38100
C2688       C  0.55226336  0.19248726  0.66810693     0.38100
C2689       C  0.52049442  0.14650862  0.69439122     0.36500
C2690       C  0.66664788  0.13793276  0.67928078     0.36500
N2691       N  0.99395514  0.15345512  0.70188830    -0.38300
N2692       N  0.69661541  0.13774452  0.67722441    -0.38300
N2693       N  0.03523514  0.21039591  0.66092711    -0.37800
N2694       N  0.65228245  0.06873700  0.71186889    -0.37800
C2695       C  0.60822932  0.33693063  0.67369660    -0.04400
C2696       C  0.62867631  0.36253747  0.68184261    -0.01500
C2697       C  0.61320479  0.38664451  0.69446872     0.03400
C2698       C  0.57766591  0.38370840  0.70016270    -0.04400
C2699       C  0.55877774  0.35541118  0.69366849    -0.01500
C2700       C  0.57293767  0.33423716  0.67917602     0.03400
C2701       C  0.66565398  0.36374651  0.67732579     0.38100
C2702       C  0.52645805  0.34540227  0.70306467     0.38100
C2703       C  0.55085616  0.31014353  0.66946383     0.36500
C2704       C  0.63465082  0.41289475  0.70260337     0.36500
N2705       N  0.53325079  0.29139825  0.66136033    -0.38300
N2706       N  0.65224777  0.43349231  0.70907213    -0.38300
N2707       N  0.50188901  0.33531628  0.71109313    -0.37800
N2708       N  0.69518657  0.36440835  0.67375651    -0.37800
C2709       C  0.93857812  0.10608896  0.68261853    -0.04400
C2710       C  0.95896460  0.10757963  0.66516554    -0.01500
C2711       C  0.95350103  0.13367550  0.65125978     0.03400
C2712       C  0.92729815  0.15814704  0.65459509    -0.04400
C2713       C  0.90636024  0.15625862  0.67181900    -0.01500
C2714       C  0.91224389  0.13047328  0.68592271     0.03400
C2715       C  0.98634866  0.08280160  0.66176210     0.38100
C2716       C  0.87836529  0.18055437  0.67480740     0.38100
C2717       C  0.89072960  0.12868114  0.70358993     0.36500
C2718       C  0.97497296  0.13551424  0.63355047     0.36500
N2719       N  0.87323196  0.12748531  0.71756858    -0.38300
N2720       N  0.48268749  0.14083719  0.61956909    -0.38300
N2721       N  0.85598463  0.19990537  0.67710263    -0.37800
N2722       N  0.50679048  0.06886109  0.65899709    -0.37800
C2723       C  0.92964767  0.33290691  0.65750985    -0.04400
C2724       C  0.91498158  0.33086735  0.67668280    -0.01500
C2725       C  0.92439526  0.35438145  0.69108857     0.03400
C2726       C  0.94542321  0.38230587  0.68584318    -0.04400
C2727       C  0.96019511  0.38419916  0.66666182    -0.01500
C2728       C  0.95308581  0.35912836  0.65277009     0.03400
C2729       C  0.88992001  0.30472485  0.68154560     0.38100
C2730       C  0.98429164  0.41099876  0.66144914     0.38100
C2731       C  0.97021830  0.36007379  0.63359463     0.36500
C2732       C  0.91416740  0.34836717  0.71142775     0.36500
N2733       N  0.98376433  0.36072627  0.61827765    -0.38300
N2734       N  0.90702839  0.34208276  0.72765828    -0.38300
N2735       N  0.49839290  0.43453490  0.65759520    -0.37800
N2736       N  0.86990374  0.28388222  0.68536514    -0.37800
C2737       C  0.83066521  0.11934220  0.53372734    -0.04400
C2738       C  0.86641000  0.11643538  0.53855579    -0.01500
C2739       C  0.88197691  0.14036980  0.55087044     0.03400
C2740       C  0.86191808  0.16706453  0.55875078    -0.04400
C2741       C  0.82659808  0.17054670  0.55355955    -0.01500
C2742       C  0.81149247  0.14784416  0.54041695     0.03400
C2743       C  0.88770258  0.08959243  0.53030383     0.38100
C2744       C  0.80498962  0.19638290  0.56263932     0.38100
C2745       C  0.77615747  0.15444738  0.53398025     0.36500
C2746       C  0.91852526  0.13719387  0.55582225     0.36500
N2747       N  0.74833088  0.16102807  0.52872289    -0.38300
N2748       N  0.94761555  0.13464718  0.55991280    -0.38300
N2749       N  0.78715328  0.21640157  0.56995342    -0.37800
N2750       N  0.90495652  0.06839047  0.52369522    -0.37800
C2751       C  0.82995650  0.38751324  0.53675770    -0.04400
C2752       C  0.86570076  0.38984817  0.54166570    -0.01500
C2753       C  0.88134179  0.36526726  0.55408101     0.03400
C2754       C  0.86122546  0.33887149  0.56225525    -0.04400
C2755       C  0.82583716  0.33629232  0.55728127    -0.01500
C2756       C  0.81088177  0.35913738  0.54371147     0.03400
C2757       C  0.88712777  0.41616980  0.53292918     0.38100
C2758       C  0.80437067  0.31048377  0.56656159     0.38100
C2759       C  0.77647391  0.35181856  0.53641457     0.36500
C2760       C  0.91825018  0.36676722  0.55829151     0.36500
N2761       N  0.74963066  0.34419032  0.53039326    -0.38300
N2762       N  0.94770951  0.36775339  0.56164498    -0.38300
N2763       N  0.78689445  0.29037883  0.57411207    -0.37800
N2764       N  0.90446447  0.43690178  0.52586297    -0.37800
C2765       C  0.69009800  0.11555922  0.54969932    -0.04400
C2766       C  0.66053242  0.13633849  0.54689232    -0.01500
C2767       C  0.65204993  0.16126173  0.56082386     0.03400
C2768       C  0.67354792  0.16573676  0.57728929    -0.04400
C2769       C  0.70310636  0.14502561  0.58006379    -0.01500
C2770       C  0.71124783  0.11977701  0.56637693     0.03400
C2771       C  0.63863736  0.13165753  0.52989399     0.38100
C2772       C  0.72510584  0.14985557  0.59704219     0.38100
C2773       C  0.74186515  0.09863332  0.56928170     0.36500
C2774       C  0.62089822  0.18184846  0.55857142     0.36500
N2775       N  0.76639482  0.08200277  0.57173098    -0.38300
N2776       N  0.59598649  0.19826404  0.55699981    -0.38300
N2777       N  0.74247081  0.15381480  0.61063370    -0.37800
N2778       N  0.62115981  0.12790684  0.51632651    -0.37800
C2779       C  0.69299309  0.38977998  0.54938246    -0.04400
C2780       C  0.66561260  0.36714339  0.54605650    -0.01500
C2781       C  0.65740451  0.34237617  0.56038342     0.03400
C2782       C  0.67697819  0.33995292  0.57784938    -0.04400
C2783       C  0.70492377  0.36203904  0.58091291    -0.01500
C2784       C  0.71277205  0.38711464  0.56676922     0.03400
C2785       C  0.64575737  0.36953594  0.52803466     0.38100
C2786       C  0.72598665  0.35837774  0.59844284     0.38100
C2787       C  0.74205298  0.40940744  0.56974752     0.36500
C2788       C  0.62895752  0.31923548  0.55720643     0.36500
N2789       N  0.76549311  0.42706789  0.57204979    -0.38300
N2790       N  0.60644442  0.30054186  0.55475629    -0.38300
N2791       N  0.74268712  0.35525456  0.61244496    -0.37800
N2792       N  0.62988380  0.37130024  0.51365916    -0.37800
C2793       C  0.57733812  0.10315857  0.30233712    -0.04400
C2794       C  0.59422934  0.13257927  0.29431109    -0.01500
C2795       C  0.59965127  0.16171382  0.30591597     0.03400
C2796       C  0.58692231  0.16338784  0.32547547    -0.04400
C2797       C  0.57216019  0.13333445  0.33379422    -0.01500
C2798       C  0.57033318  0.10307179  0.32279842     0.03400
C2799       C  0.60880813  0.13293762  0.27449627     0.38100
C2800       C  0.55983782  0.13273709  0.35407053     0.38100
C2801       C  0.56616552  0.07106825  0.33312594     0.36500
C2802       C  0.62035747  0.18931907  0.29794171     0.36500
N2803       N  0.56378481  0.04545122  0.34142106    -0.38300
N2804       N  0.63687767  0.21128232  0.29156228    -0.38300
N2805       N  0.55023759  0.13176415  0.37028794    -0.37800
N2806       N  0.62114532  0.13389093  0.25886661    -0.37800
C2807       C  0.57303788  0.41200048  0.30693161    -0.04400
C2808       C  0.55350084  0.40414239  0.32427908    -0.01500
C2809       C  0.55835508  0.37266112  0.33427644     0.03400
C2810       C  0.58234002  0.34806799  0.32707685    -0.04400
C2811       C  0.60268753  0.35636967  0.31036492    -0.01500
C2812       C  0.59926714  0.38833913  0.30095579     0.03400
C2813       C  0.52736778  0.42758221  0.33165219     0.38100
C2814       C  0.62781033  0.33196942  0.30294868     0.38100
C2815       C  0.62376470  0.39684363  0.28526114     0.36500
C2816       C  0.53829357  0.36539740  0.35206184     0.36500
N2817       N  0.64350862  0.40327990  0.27279407    -0.38300
N2818       N  0.52218857  0.35964140  0.36620913    -0.38300
N2819       N  0.64750722  0.31229929  0.29689785    -0.37800
N2820       N  0.50639253  0.44601795  0.33769236    -0.37800
C2821       C  0.64379741  0.16724094  0.42065860    -0.04400
C2822       C  0.62151173  0.14150203  0.42751765    -0.01500
C2823       C  0.63397398  0.11666424  0.44081403     0.03400
C2824       C  0.66780620  0.11941544  0.44884040    -0.04400
C2825       C  0.68856517  0.14761183  0.44326336    -0.01500
C2826       C  0.67777018  0.16936992  0.42798720     0.03400
C2827       C  0.58555380  0.14112483  0.42121349     0.38100
C2828       C  0.72030892  0.15578051  0.45347964     0.38100
C2829       C  0.70199446  0.19341086  0.41929902     0.36500
C2830       C  0.61128485  0.08913879  0.44669280     0.36500
N2831       N  0.72137294  0.21206092  0.41197025    -0.38300
N2832       N  0.59309701  0.06713438  0.45120171    -0.38300
N2833       N  0.74498097  0.16391594  0.46177004    -0.37800
N2834       N  0.55672378  0.14117296  0.41642630    -0.37800
C2835       C  0.67017193  0.38937238  0.44769189    -0.04400
C2836       C  0.68984331  0.35976711  0.44327721    -0.01500
C2837       C  0.67726469  0.33607199  0.42982244     0.03400
C2838       C  0.64348939  0.33951560  0.42208774    -0.04400
C2839       C  0.62260805  0.36737723  0.42760873    -0.01500
C2840       C  0.63616792  0.39273778  0.43978750     0.03400
C2841       C  0.72291063  0.35258752  0.45262596     0.38100
C2842       C  0.58692926  0.36969996  0.42085803     0.38100
C2843       C  0.61442888  0.42172525  0.44450704     0.36500
C2844       C  0.69970368  0.30844572  0.42355569     0.36500
N2845       N  0.59696939  0.44486397  0.44807325    -0.38300
N2846       N  0.71798695  0.28670924  0.41862705    -0.38300
N2847       N  0.55841182  0.37137572  0.41556569    -0.37800
N2848       N  0.74876373  0.34525349  0.46021916    -0.37800
C2849       C  0.94022085  0.10249278  0.30412191    -0.04400
C2850       C  0.91217277  0.12377118  0.29768571    -0.01500
C2851       C  0.90251339  0.15321213  0.30814120     0.03400
C2852       C  0.92071126  0.16265442  0.32507557    -0.04400
C2853       C  0.94775525  0.14117640  0.33197093    -0.01500
C2854       C  0.95597306  0.11052387  0.32225550     0.03400
C2855       C  0.89098849  0.11459009  0.28105618     0.38100
C2856       C  0.96540463  0.14958799  0.35004482     0.38100
C2857       C  0.97722804  0.08572876  0.33235916     0.36500
C2858       C  0.87294468  0.17346762  0.30172043     0.36500
N2859       N  0.99241886  0.06545959  0.34122872    -0.38300
N2860       N  0.84949898  0.18971320  0.29655621    -0.38300
N2861       N  0.97867912  0.15638891  0.36467592    -0.37800
N2862       N  0.87337473  0.10796589  0.26796308    -0.37800
C2863       C  0.92729539  0.34402636  0.32705269    -0.04400
C2864       C  0.90451345  0.37209404  0.32443199    -0.01500
C2865       C  0.91658355  0.40253357  0.31562460     0.03400
C2866       C  0.95075594  0.40456297  0.30778883    -0.04400
C2867       C  0.97216764  0.37513224  0.30865515    -0.01500
C2868       C  0.96158666  0.34630756  0.31960694     0.03400
C2869       C  0.86837327  0.36944358  0.33071178     0.38100
C2870       C  0.49710255  0.37506297  0.29486259     0.38100
C2871       C  0.98599492  0.31897781  0.32340274     0.36500
C2872       C  0.89308619  0.43117674  0.31367532     0.36500
N2873       N  0.50090151  0.30258311  0.32887684    -0.38300
N2874       N  0.87408825  0.45387933  0.31221452    -0.38300
N2875       N  0.52013070  0.37081366  0.28401141    -0.37800
N2876       N  0.83960180  0.36701967  0.33575601    -0.37800
C2877       C  0.80496541  0.11839315  0.43973348    -0.04400
C2878       C  0.78567991  0.12465544  0.42245403    -0.01500
C2879       C  0.79578570  0.15060078  0.40935657     0.03400
C2880       C  0.82545371  0.16986303  0.41337966    -0.04400
C2881       C  0.84429353  0.16413777  0.43088125    -0.01500
C2882       C  0.83418057  0.13816701  0.44400364     0.03400
C2883       C  0.75548040  0.10435222  0.41812008     0.38100
C2884       C  0.87413121  0.18493590  0.43523914     0.38100
C2885       C  0.85442918  0.13092470  0.46149861     0.36500
C2886       C  0.77583162  0.15756957  0.39172239     0.36500
N2887       N  0.87063203  0.12485306  0.47539453    -0.38300
N2888       N  0.75990088  0.16332947  0.37768668    -0.38300
N2889       N  0.89768766  0.20188031  0.43863419    -0.37800
N2890       N  0.73137397  0.08825099  0.41458138    -0.37800
C2891       C  0.84117873  0.34230084  0.41517999    -0.04400
C2892       C  0.81370228  0.36325578  0.40864635    -0.01500
C2893       C  0.79867070  0.38698705  0.42144062     0.03400
C2894       C  0.81123111  0.38992450  0.44078891    -0.04400
C2895       C  0.83843079  0.36871339  0.44746401    -0.01500
C2896       C  0.85351173  0.34491154  0.43461767     0.03400
C2897       C  0.80017081  0.35945946  0.38892554     0.38100
C2898       C  0.85104203  0.37180534  0.46743891     0.38100
C2899       C  0.88136202  0.32287185  0.44138541     0.36500
C2900       C  0.76931473  0.40743538  0.41496545     0.36500
N2901       N  0.90355402  0.30525820  0.44681110    -0.38300
N2902       N  0.74575202  0.42353667  0.40982439    -0.38300
N2903       N  0.86076032  0.37455669  0.48341635    -0.37800
N2904       N  0.78944499  0.35613169  0.37321249    -0.37800
N2905       N  0.87955332  0.80518008  0.36918890    -0.35700
N2906       N  0.90332450  0.75394364  0.34126324    -0.56300
N2907       N  0.87086081  0.70289546  0.36652920    -0.35700
N2908       N  0.84933154  0.75469376  0.39461874    -0.56300
C2909       C  0.90284040  0.82225344  0.35789175     0.27900
C2910       C  0.87625778  0.82203977  0.38638358     0.27900
C2911       C  0.88808240  0.68230736  0.35383816     0.27900
C2912       C  0.85944547  0.68346643  0.38181730     0.27900
C2913       C  0.90865730  0.78228756  0.33011303     0.36500
C2914       C  0.90761454  0.72665541  0.32944864     0.36500
C2915       C  0.83765107  0.78228515  0.40412252     0.36500
C2916       C  0.83218423  0.72832398  0.40260731     0.36500
C2917       C  0.91497189  0.84977857  0.36818875    -0.21000
C2918       C  0.89796884  0.84975164  0.38613206    -0.21000
C2919       C  0.88610715  0.64925335  0.36091940    -0.21000
C2920       C  0.86868742  0.65010330  0.37860120    -0.21000
C2921       C  0.91608098  0.77280070  0.31089408    -0.22000
C2922       C  0.91636523  0.73777949  0.31061005    -0.22000
C2923       C  0.81277428  0.77354600  0.41818958    -0.22000
C2924       C  0.80941267  0.73914981  0.41729250    -0.22000
C2925       C  0.91014909  0.81598153  0.33776711    -0.17400
C2926       C  0.85199371  0.81453948  0.40155139    -0.17400
C2927       C  0.83951580  0.69438246  0.39826166    -0.17400
C2928       C  0.90436873  0.69200513  0.33566563    -0.17400
H2929       H  0.93344198  0.86851642  0.36304679     0.15500
H2930       H  0.90080997  0.86829201  0.39757209     0.15500
H2931       H  0.89580757  0.62645758  0.35412117     0.15500
H2932       H  0.86297110  0.62834730  0.38785471     0.15500
H2933       H  0.92189220  0.78930080  0.29848620     0.13800
H2934       H  0.92198063  0.72234024  0.29790629     0.13800
H2935       H  0.79941099  0.79000977  0.42846010     0.13800
H2936       H  0.79283500  0.72376748  0.42670912     0.13800
H2937       H  0.86323730  0.78624690  0.36427293     0.27100
H2938       H  0.86483962  0.72816304  0.36422398     0.27100
N2939       N  0.61397193  0.70420700  0.37249721    -0.35700
N2940       N  0.60132038  0.75511759  0.34302040    -0.56300
N2941       N  0.61294303  0.80653700  0.37328819    -0.35700
N2942       N  0.62544675  0.75540962  0.40196574    -0.56300
C2943       C  0.61800504  0.68673317  0.35561743     0.27900
C2944       C  0.63131754  0.68696615  0.38665417     0.27900
C2945       C  0.61390552  0.82495166  0.35647069     0.27900
C2946       C  0.62941334  0.82460707  0.38718481     0.27900
C2947       C  0.58980529  0.72759483  0.33325906     0.36500
C2948       C  0.58888836  0.78306979  0.33359220     0.36500
C2949       C  0.62412927  0.72779771  0.41366994     0.36500
C2950       C  0.62559464  0.78228114  0.41395486     0.36500
C2951       C  0.63900175  0.65861486  0.35897846    -0.21000
C2952       C  0.64720556  0.65862942  0.37865868    -0.21000
C2953       C  0.63119984  0.85504683  0.35966089    -0.21000
C2954       C  0.64119603  0.85470724  0.37904149    -0.21000
C2955       C  0.56995963  0.73829468  0.31739024    -0.22000
C2956       C  0.57007058  0.77330716  0.31736206    -0.22000
C2957       C  0.62278533  0.73711178  0.43330599    -0.22000
C2958       C  0.62385231  0.77182224  0.43348010    -0.22000
C2959       C  0.59933351  0.69341966  0.33813912    -0.17400
C2960       C  0.63082128  0.69495610  0.40683884    -0.17400
C2961       C  0.63197351  0.81545321  0.40729253    -0.17400
C2962       C  0.59600256  0.81704906  0.33908102    -0.17400
H2963       H  0.64644023  0.63940275  0.34850044     0.15500
H2964       H  0.66246711  0.63957312  0.38629811     0.15500
H2965       H  0.63559044  0.87545231  0.34919324     0.15500
H2966       H  0.65483024  0.87468302  0.38640058     0.15500
H2967       H  0.55735955  0.72261657  0.30669556     0.13800
H2968       H  0.55791612  0.78971165  0.30654078     0.13800
H2969       H  0.62304189  0.72059420  0.44612936     0.13800
H2970       H  0.62475447  0.78746281  0.44642723     0.13800
H2971       H  0.59645420  0.72403483  0.37485704     0.27100
H2972       H  0.59784437  0.78509577  0.37556845     0.27100
O2973       O  0.67789936  0.94749528  0.45636689    -0.74400
O2974       O  0.70677421  0.90772505  0.47444173    -0.53300
C2975       C  0.68582666  0.91658604  0.46063447     0.79300
O2976       O  0.80185903  0.55940432  0.44699286    -0.59000
O2977       O  0.77929211  0.59849293  0.46816204    -0.52000
C2978       C  0.79550522  0.58978925  0.45236044     0.71400
O2979       O  0.80563735  0.94852986  0.44870738    -0.73500
O2980       O  0.78232638  0.90875737  0.46947220    -0.54100
C2981       C  0.80005812  0.91788923  0.45413868     0.77400
O2982       O  0.67527407  0.56180339  0.45695170    -0.58700
O2983       O  0.70590987  0.60051953  0.47402389    -0.51800
C2984       C  0.68390811  0.59247987  0.46080997     0.74000
Zr2985     Zr  0.68738038  0.00380302  0.46973722     2.54700
O2986       O  0.65943246  0.00438901  0.43771224    -0.79200
O2987       O  0.62951920  0.50260810  0.48302285    -0.92700
Zr2988     Zr  0.79042033  0.00418027  0.46045885     2.64700
O2989       O  0.77794344  0.00117285  0.42539323    -0.97600
O2990       O  0.85447657  0.50187974  0.45710369    -0.79700
O2991       O  0.73923210  0.97171852  0.46459408    -0.83000
O2992       O  0.73967965  0.53560953  0.46401476    -2.17700
O2993       O  0.69329335  0.55915708  0.53932101    -0.66400
O2994       O  0.71598654  0.59903788  0.51835719    -0.51000
C2995       C  0.70026441  0.58974634  0.53431426     0.72300
O2996       O  0.82108547  0.94635716  0.52921911    -0.59300
O2997       O  0.78941462  0.90721428  0.51310779    -0.51300
C2998       C  0.81267226  0.91561825  0.52557286     0.74100
O2999       O  0.82214625  0.56050798  0.52731837    -0.70700
O3000       O  0.78869305  0.59983159  0.51148899    -0.49400
C3001       C  0.81302356  0.59135114  0.52346789     0.75500
O3002       O  0.69563306  0.94623193  0.54060575    -0.66100
O3003       O  0.71683393  0.90704749  0.51910120    -0.53300
C3004       C  0.70195004  0.91574484  0.53535341     0.73900
Zr3005     Zr  0.70212874  0.00274736  0.52696810     2.77500
O3006       O  0.70002198  0.99862509  0.56284678    -0.96800
O3007       O  0.63872842  0.00383082  0.52684213    -0.77600
Zr3008     Zr  0.80546883  0.00352859  0.51816350     2.70100
O3009       O  0.82346977  0.50555293  0.55177170    -0.78900
O3010       O  0.86699131  0.00498935  0.50932240    -0.98000
Zr3011     Zr  0.74766748  0.93907740  0.49381212     2.21500
Zr3012     Zr  0.74693637  0.56774477  0.49310815     2.11100
O3013       O  0.75447538  0.53480887  0.52222691    -2.46600
O3014       O  0.75436850  0.97112880  0.52287597    -0.78700
O3015       O  0.69420545  0.53714581  0.49763881    -0.70900
O3016       O  0.79960017  0.97100223  0.48931010    -2.31800
O3017       O  0.69441439  0.96970291  0.49844151    -2.28000
O3018       O  0.79967674  0.53660242  0.48850069    -0.72600
H3019       H  0.73729008  0.54981988  0.45245573     0.79400
H3020       H  0.81968402  0.95641850  0.48767088     0.80500
H3021       H  0.75748025  0.54883790  0.53357702     0.82700
H3022       H  0.67506311  0.95447505  0.50020589     0.80300
H3023       H  0.86195039  0.02099223  0.46465164     0.43300
H3024       H  0.86988712  0.52213661  0.49869208     0.42300
H3025       H  0.79664213  0.00539271  0.55982912     0.42000
H3026       H  0.72697024  0.51659731  0.56498792     0.39900
H3027       H  0.63287703  0.47939947  0.52578844     0.43000
H3028       H  0.62298545  0.97884927  0.48524581     0.37800
H3029       H  0.67859676  0.99995989  0.42818301     0.43900
H3030       H  0.80637160  0.49328661  0.41919550     0.40400
H3031       H  0.68658897  0.51155050  0.56712647     0.45300
H3032       H  0.61341863  0.00961870  0.47167368     0.44000
H3033       H  0.79257455  0.01870829  0.41899342     0.44100
H3034       H  0.88020571  0.50318820  0.51817832     0.44500
N3035       N  0.90827769  0.80255461  0.60671007    -0.35700
N3036       N  0.92544052  0.74895566  0.63354139    -0.56300
N3037       N  0.90473482  0.69851251  0.60478675    -0.35700
N3038       N  0.88587398  0.75178787  0.57840021    -0.56300
C3039       C  0.91282960  0.82013986  0.62347940     0.27900
C3040       C  0.88785546  0.82149558  0.59473634     0.27900
C3041       C  0.90466062  0.67996206  0.62157072     0.27900
C3042       C  0.88677507  0.68097908  0.59135523     0.27900
C3043       C  0.94104658  0.77457108  0.64286164     0.36500
C3044       C  0.93600193  0.72031305  0.64266392     0.36500
C3045       C  0.88228817  0.78023352  0.56748064     0.36500
C3046       C  0.88377154  0.72570757  0.56580840     0.36500
C3047       C  0.89588689  0.85106478  0.62194999    -0.21000
C3048       C  0.87991128  0.85184575  0.60384803    -0.21000
C3049       C  0.88702480  0.64999429  0.61870424    -0.21000
C3050       C  0.87576984  0.65060982  0.59955785    -0.21000
C3051       C  0.96201065  0.76209483  0.65780224    -0.22000
C3052       C  0.95857282  0.72762754  0.65778886    -0.22000
C3053       C  0.87825752  0.77221558  0.54779401    -0.22000
C3054       C  0.87924371  0.73760801  0.54674238    -0.22000
C3055       C  0.93230196  0.80890721  0.63994553    -0.17400
C3056       C  0.87802515  0.81288315  0.57536720    -0.17400
C3057       C  0.88060506  0.69162756  0.57181657    -0.17400
C3058       C  0.92259685  0.68812189  0.63883021    -0.17400
H3059       H  0.89483938  0.87083431  0.63281455     0.15500
H3060       H  0.86440772  0.87252512  0.59800989     0.15500
H3061       H  0.88304005  0.62961507  0.62924383     0.15500
H3062       H  0.86109600  0.63099027  0.59251883     0.15500
H3063       H  0.97678025  0.77646128  0.66822552     0.13800
H3064       H  0.97052131  0.71004326  0.66806004     0.13800
H3065       H  0.87381027  0.78947621  0.53557502     0.13800
H3066       H  0.87552915  0.72286255  0.53362120     0.13800
H3067       H  0.92105616  0.78028476  0.60288753     0.27100
H3068       H  0.91933884  0.72012297  0.60208574     0.27100
N3069       N  0.65108065  0.80082242  0.62718558    -0.35700
N3070       N  0.63367630  0.74798955  0.65570991    -0.56300
N3071       N  0.65307681  0.69702465  0.62793033    -0.35700
N3072       N  0.66964720  0.75012875  0.59909088    -0.56300
C3073       C  0.63207125  0.81843220  0.64048143     0.27900
C3074       C  0.65266308  0.81968007  0.61043218     0.27900
C3075       C  0.63465311  0.67836803  0.64116984     0.27900
C3076       C  0.65437793  0.67947363  0.61100979     0.27900
C3077       C  0.63111661  0.77516493  0.66738461     0.36500
C3078       C  0.63136620  0.72061552  0.66766177     0.36500
C3079       C  0.68172580  0.77746133  0.58919172     0.36500
C3080       C  0.68251670  0.72298037  0.58963160     0.36500
C3081       C  0.62171372  0.84902832  0.63212548    -0.21000
C3082       C  0.63495358  0.84989812  0.61318464    -0.21000
C3083       C  0.62479000  0.64830196  0.63269265    -0.21000
C3084       C  0.63733676  0.64896885  0.61362484    -0.21000
C3085       C  0.62792401  0.76501236  0.68697047    -0.22000
C3086       C  0.62774390  0.73033667  0.68711418    -0.22000
C3087       C  0.70245767  0.76768936  0.57339891    -0.22000
C3088       C  0.70301178  0.73304094  0.57369140    -0.22000
C3089       C  0.62563576  0.80839172  0.66028024    -0.17400
C3090       C  0.67115341  0.81084545  0.59309920    -0.17400
C3091       C  0.67215148  0.68956985  0.59362755    -0.17400
C3092       C  0.62736736  0.68747754  0.66083665    -0.17400
H3093       H  0.60656231  0.86888212  0.63902367     0.15500
H3094       H  0.63192756  0.87042845  0.60265186     0.15500
H3095       H  0.61007926  0.62800901  0.63951987     0.15500
H3096       H  0.63423592  0.62925801  0.60289528     0.15500
H3097       H  0.62409966  0.78092139  0.69968173     0.13800
H3098       H  0.62395887  0.71417581  0.69992708     0.13800
H3099       H  0.71490112  0.78380487  0.56246448     0.13800
H3100       H  0.71592258  0.71707574  0.56298367     0.13800
H3101       H  0.66532955  0.77892447  0.63010222     0.27100
H3102       H  0.66686269  0.71891906  0.63074555     0.27100
O3103       O  0.94405915  0.57643619  0.27168151    -0.74400
O3104       O  0.97110893  0.54872410  0.29697481    -0.53300
C3105       C  0.95111067  0.57290765  0.29007100     0.79300
O3106       O  0.92985159  0.94516153  0.21218692    -0.59000
O3107       O  0.96221446  0.96856510  0.18704732    -0.52000
C3108       C  0.93557077  0.95186137  0.19389071     0.71400
O3109       O  0.94779150  0.93104974  0.27480180    -0.73500
O3110       O  0.97600337  0.96097257  0.29845913    -0.54100
C3111       C  0.95707990  0.93570688  0.29261967     0.77400
O3112       O  0.93473722  0.55899093  0.20684864    -0.58700
O3113       O  0.96924606  0.53413101  0.18348208    -0.51800
C3114       C  0.94235082  0.55178070  0.18876290     0.74000
Zr3115     Zr  0.95749851  0.55026094  0.24030709     2.54700
O3116       O  0.89450324  0.54735599  0.24402960    -0.79200
O3117       O  0.95995365  0.61094006  0.23430823    -0.92700
Zr3118     Zr  0.95786833  0.95722936  0.24306698     2.64700
O3119       O  0.89592012  0.96381398  0.25034495    -0.97600
O3120       O  0.95853885  0.89631469  0.23879505    -0.79700
O3121       O  0.95822895  0.50222136  0.26214734    -0.83000
O3122       O  0.95891881  0.49926310  0.22327095    -2.17700
O3123       O  0.58587625  0.55937844  0.20676168    -0.66400
O3124       O  0.55469371  0.53116139  0.18364263    -0.51000
C3125       C  0.58112626  0.54887153  0.18924823     0.72300
O3126       O  0.56969105  0.93131735  0.27387690    -0.59300
O3127       O  0.54497236  0.96363212  0.29796547    -0.51300
C3128       C  0.56304126  0.93763894  0.29206368     0.74100
O3129       O  0.58293702  0.93706463  0.20829982    -0.70700
O3130       O  0.55179145  0.96269306  0.18388758    -0.49400
C3131       C  0.57723168  0.94354752  0.18988018     0.75500
O3132       O  0.57114195  0.57939984  0.26946814    -0.66100
O3133       O  0.54381543  0.55269299  0.29505088    -0.53300
C3134       C  0.56347210  0.57675087  0.28785875     0.73900
Zr3135     Zr  0.55811459  0.55274685  0.23852688     2.77500
O3136       O  0.62094959  0.55366278  0.24311227    -0.96800
O3137       O  0.55255065  0.61199676  0.22899506    -0.77600
Zr3138     Zr  0.55873240  0.95220725  0.24091011     2.70100
O3139       O  0.62191055  0.95217185  0.24298314    -0.78900
O3140       O  0.55049458  0.89136939  0.23993550    -0.98000
Zr3141     Zr  0.50687797  0.50765369  0.28020343     2.21500
Zr3142     Zr  0.50634153  0.50114582  0.20113948     2.11100
O3143       O  0.55704185  0.50178809  0.22111767    -2.46600
O3144       O  0.55876859  0.50457214  0.25990450    -0.78700
O3145       O  0.50736988  0.55343503  0.21868847    -0.70900
O3146       O  0.50792401  0.95641533  0.26042231    -2.31800
O3147       O  0.50733457  0.55528121  0.25805229    -2.28000
O3148       O  0.50767950  0.95165636  0.22152918    -0.72600
H3149       H  0.93761664  0.49892553  0.21599510     0.79400
H3150       H  0.50778335  0.93629437  0.26848892     0.80500
H3151       H  0.57821927  0.49983267  0.21348570     0.82700
H3152       H  0.50753514  0.57628600  0.26507325     0.80300
H3153       H  0.98266571  0.88931667  0.24195919     0.43300
H3154       H  0.54400809  0.88666299  0.22616689     0.42300
H3155       H  0.62755625  0.97464067  0.24825950     0.42000
H3156       H  0.63072555  0.53842695  0.23296453     0.39900
H3157       H  0.53950923  0.62254878  0.23999656     0.43000
H3158       H  0.97662459  0.61364746  0.22317381     0.37800
H3159       H  0.89028498  0.52561745  0.25096753     0.43900
H3160       H  0.89463014  0.97058750  0.26433280     0.40400
H3161       H  0.62805858  0.57654441  0.23870502     0.45300
H3162       H  0.97230073  0.62009717  0.24577153     0.44000
H3163       H  0.88887336  0.98435642  0.24290046     0.44100
H3164       H  0.57418837  0.88170618  0.24138060     0.44500
O3165       O  0.96161233  0.80585068  0.94822289    -0.74400
O3166       O  0.92069293  0.78583597  0.96950252    -0.53300
C3167       C  0.92965837  0.80038907  0.95326056     0.79300
O3168       O  0.56259841  0.68851815  0.93897947    -0.59000
O3169       O  0.60690830  0.70881791  0.95747706    -0.52000
C3170       C  0.59518748  0.69257312  0.94263910     0.71400
O3171       O  0.95424883  0.69850140  0.94183418    -0.73500
O3172       O  0.91698603  0.71963250  0.96497306    -0.54100
C3173       C  0.92342027  0.70606272  0.94827310     0.77400
O3174       O  0.56645445  0.81650256  0.94809952    -0.58700
O3175       O  0.60928195  0.78220230  0.96050730    -0.51800
C3176       C  0.59785026  0.80509210  0.94837695     0.74000
Zr3177     Zr  0.51067212  0.80535162  0.96370077     2.54700
O3178       O  0.50756268  0.83657753  0.93265735    -0.79200
O3179       O  0.51356815  0.86043985  0.97916155    -0.92700
Zr3180     Zr  0.50570409  0.70587749  0.95272192     2.64700
O3181       O  0.01554729  0.71210932  0.91775545    -0.97600
O3182       O  0.49309231  0.64574403  0.95232673    -0.79700
O3183       O  0.98431578  0.75306837  0.95920916    -0.83000
O3184       O  0.54125089  0.75396385  0.95629510    -2.17700
O3185       O  0.57952178  0.79065393  0.03058384    -0.66400
O3186       O  0.61685878  0.76872601  0.00762961    -0.51000
C3187       C  0.61031647  0.78341433  0.02414853     0.72300
O3188       O  0.95711900  0.66814485  0.02008952    -0.59300
O3189       O  0.91795681  0.70428673  0.00616760    -0.51300
C3190       C  0.92572794  0.67862624  0.01694763     0.74100
O3191       O  0.57067602  0.66561388  0.01767619    -0.70700
O3192       O  0.61136154  0.69747227  0.00142375    -0.49400
C3193       C  0.60237312  0.67317676  0.01336003     0.75500
O3194       O  0.96583159  0.80019359  0.03303752    -0.66100
O3195       O  0.92300226  0.77712114  0.01449429    -0.53300
C3196       C  0.93380563  0.79536267  0.02866074     0.73900
Zr3197     Zr  0.51921256  0.78530740  0.02045090     2.77500
O3198       O  0.51274870  0.77099743  0.05524639    -0.96800
O3199       O  0.53129026  0.84373642  0.02860829    -0.77600
Zr3200     Zr  0.51293109  0.68630694  0.00944437     2.70100
O3201       O  0.51374466  0.66815544  0.04381090    -0.78900
O3202       O  0.51200429  0.62913279  0.99675225    -0.98000
Zr3203     Zr  0.95268412  0.74538546  0.98905896     2.21500
Zr3204     Zr  0.57973241  0.74243784  0.98326545     2.11100
O3205       O  0.54899915  0.73401968  0.01367278    -2.46600
O3206       O  0.98614528  0.73355153  0.01741008    -0.78700
O3207       O  0.54977223  0.79448012  0.99015106    -0.70900
O3208       O  0.98169811  0.69327480  0.98251491    -2.31800
O3209       O  0.98643549  0.79460999  0.99384664    -2.28000
O3210       O  0.54382870  0.69420089  0.97931391    -0.72600
H3211       H  0.55400241  0.75602600  0.94402106     0.79400
H3212       H  0.96536452  0.67515059  0.98078788     0.80500
H3213       H  0.56476221  0.72924666  0.02434605     0.82700
H3214       H  0.97190148  0.81423487  0.99607325     0.80300
H3215       H  0.03014344  0.63127100  0.95342587     0.43300
H3216       H  0.53322702  0.62730843  0.98839434     0.42300
H3217       H  0.99782899  0.68290322  0.05107590     0.42000
H3218       H  0.52558023  0.74941140  0.05683816     0.39900
H3219       H  0.51145041  0.85686142  0.02320730     0.43000
H3220       H  0.99403977  0.86659223  0.97587312     0.37800
H3221       H  0.00195805  0.85854723  0.93979339     0.43900
H3222       H  0.52671139  0.72122796  0.91295431     0.40400
H3223       H  0.52698285  0.78784519  0.06210939     0.45300
H3224       H  0.53521849  0.87059784  0.97379504     0.44000
H3225       H  0.51271157  0.68410858  0.91273812     0.44100
H3226       H  0.51696421  0.61465737  0.00838396     0.44500
N3227       N  0.78895873  0.80139978  0.83385759    -0.35700
N3228       N  0.74084948  0.79502476  0.86633083    -0.56300
N3229       N  0.69325152  0.83592496  0.84549869    -0.35700
N3230       N  0.74135725  0.83812485  0.81090959    -0.56300
C3231       C  0.80151404  0.77215296  0.84173914     0.27900
C3232       C  0.80961351  0.81051620  0.81843981     0.27900
C3233       C  0.67582478  0.82077670  0.86046655     0.27900
C3234       C  0.67459472  0.83097226  0.82905751     0.27900
C3235       C  0.76431705  0.77147825  0.87181626     0.36500
C3236       C  0.72110709  0.80343091  0.88217573     0.36500
C3237       C  0.77020157  0.85300680  0.80355653     0.36500
C3238       C  0.71375911  0.85684772  0.80523815     0.36500
C3239       C  0.83193758  0.76375395  0.83147291    -0.21000
C3240       C  0.83718871  0.78809243  0.81704193    -0.21000
C3241       C  0.64776375  0.80322437  0.85302270    -0.21000
C3242       C  0.64598664  0.81114659  0.83329558    -0.21000
C3243       C  0.76035868  0.76520940  0.89184686    -0.22000
C3244       C  0.73312626  0.78539421  0.89846396    -0.22000
C3245       C  0.76062688  0.88169394  0.79282910    -0.22000
C3246       C  0.72454203  0.88357660  0.79347000    -0.22000
C3247       C  0.78665432  0.75407195  0.85830415    -0.17400
C3248       C  0.80424523  0.83925050  0.80601263    -0.17400
C3249       C  0.67967141  0.84947054  0.81157784    -0.17400
C3250       C  0.68792137  0.81952009  0.88007397    -0.17400
H3251       H  0.84955476  0.74297576  0.83417106     0.15500
H3252       H  0.85858611  0.78894463  0.80653995     0.15500
H3253       H  0.63000850  0.78676846  0.86097123     0.15500
H3254       H  0.62597354  0.80346080  0.82321991     0.15500
H3255       H  0.77505562  0.74758651  0.90073183     0.13800
H3256       H  0.72158734  0.78385247  0.91303118     0.13800
H3257       H  0.77767111  0.89936794  0.78530607     0.13800
H3258       H  0.70836046  0.90304072  0.78686913     0.13800
H3259       H  0.76840661  0.81589640  0.83906354     0.27100
H3260       H  0.71482326  0.85161885  0.84688385     0.27100
N3261       N  0.73790144  0.68992411  0.86413685    -0.35700
N3262       N  0.79284245  0.69725836  0.82803648    -0.56300
N3263       N  0.73736647  0.66478841  0.80662359    -0.35700
N3264       N  0.68822719  0.65927868  0.83970539    -0.56300
C3265       C  0.76885364  0.69765529  0.87197630     0.27900
C3266       C  0.72045605  0.67077759  0.87751736     0.27900
C3267       C  0.76399702  0.66777959  0.79337443     0.27900
C3268       C  0.70711856  0.66389923  0.79655790     0.27900
C3269       C  0.80768440  0.69747319  0.84594815     0.36500
C3270       C  0.80894821  0.67241581  0.81786543     0.36500
C3271       C  0.67040726  0.65623950  0.85694021     0.36500
C3272       C  0.66555293  0.65382949  0.82510579     0.36500
C3273       C  0.77198055  0.68295460  0.89045094    -0.21000
C3274       C  0.74062089  0.66685912  0.89428131    -0.21000
C3275       C  0.75056301  0.67057603  0.77458624    -0.21000
C3276       C  0.71468599  0.66800721  0.77657596    -0.21000
C3277       C  0.83234089  0.67192798  0.84752082    -0.22000
C3278       C  0.83416902  0.65677545  0.82931352    -0.22000
C3279       C  0.63606220  0.64837012  0.85337107    -0.22000
C3280       C  0.63307013  0.64630648  0.83323783    -0.22000
C3281       C  0.79413296  0.71642891  0.86163337    -0.17400
C3282       C  0.68525541  0.66073380  0.87569139    -0.17400
C3283       C  0.67356816  0.65568047  0.80460533    -0.17400
C3284       C  0.79965081  0.66369997  0.79852651    -0.17400
H3285       H  0.79399980  0.68446187  0.90020555     0.15500
H3286       H  0.73344002  0.65364443  0.90775804     0.15500
H3287       H  0.76514943  0.67253859  0.76088646     0.15500
H3288       H  0.69635266  0.66770352  0.76458417     0.15500
H3289       H  0.84699095  0.66484454  0.86047831     0.13800
H3290       H  0.85053822  0.63550685  0.82531809     0.13800
H3291       H  0.61534969  0.64440605  0.86406188     0.13800
H3292       H  0.60940894  0.64036476  0.82556400     0.13800
H3293       H  0.72875534  0.69991441  0.85086073     0.27100
H3294       H  0.74067064  0.65912727  0.82149242     0.27100
O3295       O  0.95543545  0.93706405  0.69504448    -0.74400
O3296       O  0.97281671  0.89825661  0.71814857    -0.53300
C3297       C  0.96181387  0.90658843  0.70087124     0.79300
O3298       O  0.56785250  0.55600559  0.70726622    -0.59000
O3299       O  0.53121699  0.59527336  0.72067775    -0.52000
C3300       C  0.55746298  0.58676125  0.70987521     0.71400
O3301       O  0.56624336  0.94023271  0.70482755    -0.73500
O3302       O  0.53748073  0.90052934  0.72312784    -0.54100
C3303       C  0.55932829  0.90939277  0.70962879     0.77400
O3304       O  0.93979076  0.55249822  0.69245873    -0.58700
O3305       O  0.96158946  0.59375790  0.71203025    -0.51800
C3306       C  0.94614077  0.58340909  0.69657201     0.74000
Zr3307     Zr  0.95234469  0.99375208  0.70875891     2.54700
O3308       O  0.94713779  0.99290740  0.67304806    -0.79200
O3309       O  0.88939321  0.98686013  0.71004487    -0.92700
Zr3310     Zr  0.55139593  0.99734804  0.71547336     2.64700
O3311       O  0.56266346  0.99578228  0.68010859    -0.97600
O3312       O  0.61287615  0.99494134  0.72344693    -0.79700
O3313       O  0.50146684  0.96317849  0.71289179    -0.83000
O3314       O  0.49715579  0.52979434  0.71226290    -2.17700
O3315       O  0.90607351  0.55564042  0.76581373    -0.66400
O3316       O  0.94161541  0.59696831  0.75373376    -0.51000
C3317       C  0.91258036  0.58669619  0.76165648     0.72300
O3318       O  0.56168134  0.94370088  0.78080897    -0.59300
O3319       O  0.53578855  0.90067279  0.76481278    -0.51300
C3320       C  0.55843721  0.91235606  0.77681619     0.74100
O3321       O  0.56324113  0.55603296  0.77424536    -0.70700
O3322       O  0.53314497  0.59765796  0.75857300    -0.49400
C3323       C  0.55982989  0.58672439  0.76826417     0.75500
O3324       O  0.91205276  0.94225014  0.77264143    -0.66100
O3325       O  0.94932388  0.90079236  0.76200268    -0.53300
C3326       C  0.92067786  0.91121230  0.77026564     0.73900
Zr3327     Zr  0.93470693  0.99807632  0.76590242     2.77500
O3328       O  0.92911870  0.00258228  0.80151064    -0.96800
O3329       O  0.87146066  0.99411191  0.76553263    -0.77600
Zr3330     Zr  0.53703392  0.99859785  0.77366742     2.70100
O3331       O  0.51539072  0.00411603  0.80735722    -0.78900
O3332       O  0.59232313  0.99315459  0.79096650    -0.98000
Zr3333     Zr  0.49569843  0.93104577  0.74277389     2.21500
Zr3334     Zr  0.48983652  0.56434865  0.74074467     2.11100
O3335       O  0.48310133  0.53524324  0.77162357    -2.46600
O3336       O  0.48785350  0.96346467  0.77189223    -0.78700
O3337       O  0.94079961  0.53194308  0.73471347    -0.70900
O3338       O  0.54619713  0.96552412  0.74505861    -2.31800
O3339       O  0.94441342  0.96246980  0.73833642    -2.28000
O3340       O  0.54179891  0.53220124  0.74506182    -0.72600
H3341       H  0.49987385  0.54328935  0.70039792     0.79400
H3342       H  0.56723877  0.95209955  0.74581261     0.80500
H3343       H  0.47966784  0.55093082  0.78227423     0.82700
H3344       H  0.92510810  0.94743131  0.73640029     0.80300
H3345       H  0.62466082  0.00505037  0.71178103     0.43300
H3346       H  0.61032570  0.99113426  0.78048738     0.42300
H3347       H  0.53614193  0.00975116  0.81515495     0.42000
H3348       H  0.92594644  0.02704415  0.80385842     0.39900
H3349       H  0.86619429  0.98088911  0.75365685     0.43000
H3350       H  0.88118366  0.99654452  0.69739084     0.37800
H3351       H  0.97140123  0.99470829  0.66806573     0.43900
H3352       H  0.54303196  0.00852040  0.67419005     0.40400
H3353       H  0.90608089  0.99268283  0.80465258     0.45300
H3354       H  0.88126488  0.00316318  0.72005619     0.44000
H3355       H  0.58326218  0.01024949  0.67782530     0.44100
H3356       H  0.59678629  0.01512839  0.79720718     0.44500
N3357       N  0.76062703  0.60412333  0.07232787    -0.35700
N3358       N  0.70798971  0.58794531  0.10148963    -0.56300
N3359       N  0.76321573  0.58032615  0.13098177    -0.35700
N3360       N  0.81574916  0.59635612  0.10099645    -0.56300
C3361       C  0.73248290  0.60207869  0.06067320     0.27900
C3362       C  0.78886287  0.60523816  0.06031225     0.27900
C3363       C  0.73487092  0.57653561  0.14291527     0.27900
C3364       C  0.79209133  0.57980017  0.14240834     0.27900
C3365       C  0.68650762  0.59550684  0.08634379     0.36500
C3366       C  0.68756595  0.58026650  0.11720870     0.36500
C3367       C  0.83488263  0.60858894  0.08576855     0.36500
C3368       C  0.83678538  0.59568201  0.11676364     0.36500
C3369       C  0.74291484  0.60156437  0.04106313    -0.21000
C3370       C  0.77860249  0.60342206  0.04083256    -0.21000
C3371       C  0.74610710  0.57370731  0.16226840    -0.21000
C3372       C  0.78200313  0.57502599  0.16188871    -0.21000
C3373       C  0.65219534  0.59197801  0.09225518    -0.22000
C3374       C  0.65283356  0.58114834  0.11151172    -0.22000
C3375       C  0.86830504  0.61580645  0.09185976    -0.22000
C3376       C  0.86961840  0.60730783  0.11146076    -0.22000
C3377       C  0.69752359  0.60455471  0.06707824    -0.17400
C3378       C  0.82305723  0.61224751  0.06626865    -0.17400
C3379       C  0.82723597  0.58446727  0.13591691    -0.17400
C3380       C  0.69918463  0.57525366  0.13695179    -0.17400
H3381       H  0.72639672  0.60090667  0.02825534     0.15500
H3382       H  0.79506168  0.60464173  0.02779268     0.15500
H3383       H  0.73016261  0.57084349  0.17541730     0.15500
H3384       H  0.79867313  0.57347068  0.17462130     0.15500
H3385       H  0.62908006  0.59599963  0.08354529     0.13800
H3386       H  0.62995287  0.57557578  0.12035666     0.13800
H3387       H  0.88964917  0.62580904  0.08308716     0.13800
H3388       H  0.89207259  0.60988457  0.12080699     0.13800
H3389       H  0.76017820  0.61045518  0.08711730     0.27100
H3390       H  0.76295292  0.58122627  0.11578790     0.27100
N3391       N  0.76973473  0.85800365  0.08135398    -0.35700
N3392       N  0.81839166  0.88724728  0.10861487    -0.56300
N3393       N  0.76025451  0.90432044  0.13468603    -0.35700
N3394       N  0.71133043  0.87620012  0.10684786    -0.56300
C3395       C  0.79710956  0.86675835  0.06982844     0.27900
C3396       C  0.74172471  0.85818193  0.06958462     0.27900
C3397       C  0.78743878  0.90933058  0.14706510     0.27900
C3398       C  0.73006176  0.90686157  0.14537009     0.27900
C3399       C  0.84123741  0.87738496  0.09452446     0.36500
C3400       C  0.83752060  0.89896348  0.12352278     0.36500
C3401       C  0.69324138  0.86289923  0.09181662     0.36500
C3402       C  0.68768140  0.88986144  0.11939152     0.36500
C3403       C  0.78630145  0.87397488  0.05085726    -0.21000
C3404       C  0.75075101  0.87027507  0.05099888    -0.21000
C3405       C  0.77414066  0.91551105  0.16576852    -0.21000
C3406       C  0.73826905  0.91431533  0.16466535    -0.21000
C3407       C  0.87505911  0.88308002  0.10019706    -0.22000
C3408       C  0.87274438  0.89761680  0.11837374    -0.22000
C3409       C  0.65806045  0.86975379  0.09426255    -0.22000
C3410       C  0.65444303  0.88614085  0.11187518    -0.22000
C3411       C  0.83170251  0.86594625  0.07593645    -0.17400
C3412       C  0.70876377  0.84643145  0.07545411    -0.17400
C3413       C  0.69525270  0.90328580  0.13819329    -0.17400
C3414       C  0.82395213  0.90895192  0.14211554    -0.17400
H3415       H  0.80211011  0.88138769  0.03828877     0.15500
H3416       H  0.73370435  0.87436232  0.03858574     0.15500
H3417       H  0.78877748  0.92048630  0.17893491     0.15500
H3418       H  0.72030623  0.91832479  0.17682009     0.15500
H3419       H  0.89872395  0.87859089  0.09177367     0.13800
H3420       H  0.89475258  0.90590929  0.12679930     0.13800
H3421       H  0.63715191  0.86383943  0.08435425     0.13800
H3422       H  0.62993364  0.89404318  0.11841135     0.13800
H3423       H  0.77072662  0.84848825  0.09576241     0.27100
H3424       H  0.76195204  0.90179029  0.11951745     0.27100
C3425       C  0.59032530  0.60887907  0.77273123    -0.04400
C3426       C  0.62381507  0.59345726  0.77392712    -0.01500
C3427       C  0.65039787  0.60865541  0.78459734     0.03400
C3428       C  0.64660264  0.64211972  0.79103681    -0.04400
C3429       C  0.61536747  0.65997341  0.78691703    -0.01500
C3430       C  0.58681579  0.64306859  0.77835921     0.03400
C3431       C  0.63122633  0.56148452  0.76442687     0.38100
C3432       C  0.61175152  0.69476510  0.79304734     0.38100
C3433       C  0.55378870  0.66047757  0.77624442     0.36500
C3434       C  0.67951966  0.58809146  0.79130452     0.36500
N3435       N  0.52756130  0.67474737  0.77457786    -0.38300
N3436       N  0.70184772  0.57128992  0.79735963    -0.38300
N3437       N  0.60892445  0.72248909  0.79806036    -0.37800
N3438       N  0.63749501  0.53612139  0.75682729    -0.37800
C3439       C  0.82709381  0.64788917  0.78495027    -0.04400
C3440       C  0.82077739  0.61788191  0.77436309    -0.01500
C3441       C  0.84838343  0.60072973  0.76462140     0.03400
C3442       C  0.88343901  0.61104712  0.76673560    -0.04400
C3443       C  0.88944140  0.64251277  0.77554339    -0.01500
C3444       C  0.86138514  0.66130798  0.78389351     0.03400
C3445       C  0.78632713  0.60342918  0.77356906     0.38100
C3446       C  0.92453593  0.65532891  0.77660132     0.38100
C3447       C  0.86806252  0.69475975  0.79129749     0.36500
C3448       C  0.84033655  0.57272468  0.75185280     0.36500
N3449       N  0.87380941  0.72150126  0.79702061    -0.38300
N3450       N  0.83347376  0.55085221  0.74147091    -0.38300
N3451       N  0.95248495  0.66583015  0.77744437    -0.37800
N3452       N  0.75911369  0.59146945  0.77212295    -0.37800
C3453       C  0.64813035  0.86475257  0.80223432    -0.04400
C3454       C  0.63683842  0.85406565  0.78360984    -0.01500
C3455       C  0.60565304  0.86729240  0.77554646     0.03400
C3456       C  0.58470359  0.89002587  0.78652187    -0.04400
C3457       C  0.59440685  0.89769688  0.80600615    -0.01500
C3458       C  0.62667980  0.88675766  0.81336871     0.03400
C3459       C  0.65695467  0.82901566  0.77288813     0.38100
C3460       C  0.57094815  0.91698770  0.81859587     0.38100
C3461       C  0.63806671  0.89886977  0.83234256     0.36500
C3462       C  0.59582103  0.85777807  0.75587691     0.36500
N3463       N  0.64703187  0.90864908  0.84744826    -0.38300
N3464       N  0.58852115  0.84934189  0.74021858    -0.38300
N3465       N  0.55211694  0.93213778  0.82863920    -0.37800
N3466       N  0.67269383  0.80882624  0.76430897    -0.37800
C3467       C  0.83554744  0.85500130  0.79591477    -0.04400
C3468       C  0.86411197  0.86535788  0.80739239    -0.01500
C3469       C  0.89413865  0.87922976  0.79836172     0.03400
C3470       C  0.89459863  0.88676850  0.77803178    -0.04400
C3471       C  0.86522256  0.87857191  0.76666359    -0.01500
C3472       C  0.83712338  0.86042633  0.77523517     0.03400
C3473       C  0.86137964  0.86485183  0.82870919     0.38100
C3474       C  0.86219569  0.89180588  0.74672347     0.38100
C3475       C  0.80943242  0.84848620  0.76279283     0.36500
C3476       C  0.92366839  0.88831408  0.81030033     0.36500
N3477       N  0.78710523  0.83933098  0.75291163    -0.38300
N3478       N  0.94724391  0.89552571  0.81980535    -0.38300
N3479       N  0.85934140  0.90294767  0.73096999    -0.37800
N3480       N  0.85881230  0.86526127  0.84569755    -0.37800
C3481       C  0.62978084  0.65371431  0.02444691    -0.04400
C3482       C  0.65737528  0.67098188  0.03337247    -0.01500
C3483       C  0.67657279  0.65560801  0.04860073     0.03400
C3484       C  0.67247430  0.62099396  0.05307627    -0.04400
C3485       C  0.64775719  0.60230332  0.04266881    -0.01500
C3486       C  0.62569130  0.61876935  0.02890016     0.05000
C3487       C  0.66836677  0.70352401  0.02603156     0.38100
C3488       C  0.64521474  0.56619242  0.04608760     0.38100
C3489       C  0.60026985  0.59908590  0.01851304     0.36500
C3490       C  0.70017448  0.67582171  0.06004823     0.36500
N3491       N  0.58043831  0.58275965  0.01025302    -0.38300
N3492       N  0.71838706  0.69214153  0.06940928    -0.38300
N3493       N  0.64324627  0.53738175  0.04888673    -0.37800
N3494       N  0.67932313  0.72851347  0.01974075    -0.37800
C3495       C  0.89656821  0.66043857  0.02698980    -0.04400
C3496       C  0.86694212  0.67847829  0.03411576    -0.01500
C3497       C  0.84314043  0.66246044  0.04693832     0.03400
C3498       C  0.84696536  0.62787289  0.05149602    -0.04400
C3499       C  0.87399809  0.60893869  0.04275683    -0.01500
C3500       C  0.89896819  0.62516843  0.03069712     0.03400
C3501       C  0.86056869  0.71358558  0.02874522     0.38100
C3502       C  0.87659768  0.57288772  0.04659625     0.38100
C3503       C  0.92647910  0.60504207  0.02179985     0.36500
C3504       C  0.81575602  0.68209628  0.05642336     0.36500
N3505       N  0.94803752  0.58829784  0.01485007    -0.38300
N3506       N  0.79434888  0.69793731  0.06419533    -0.38300
N3507       N  0.87893274  0.54412261  0.04955556    -0.37800
N3508       N  0.85450143  0.74137368  0.02444334    -0.37800
C3509       C  0.63968573  0.79233921  0.03736007    -0.04400
C3510       C  0.67247803  0.80293571  0.03003777    -0.01500
C3511       C  0.69819456  0.81312568  0.04331735     0.03400
C3512       C  0.68845329  0.82159590  0.06292325    -0.04400
C3513       C  0.65993710  0.80307706  0.07082959    -0.01500
C3514       C  0.63574630  0.78835216  0.05804653     0.03400
C3515       C  0.68131389  0.80078963  0.00928657     0.38100
C3516       C  0.65732201  0.79593585  0.09183632     0.38100
C3517       C  0.60884716  0.76657980  0.06617706     0.36500
C3518       C  0.73414681  0.80496430  0.03838333     0.36500
N3519       N  0.58823795  0.74854640  0.07291991    -0.38300
N3520       N  0.76263938  0.79782735  0.03436558    -0.38300
N3521       N  0.65482271  0.79019556  0.10855554    -0.37800
N3522       N  0.68923620  0.79801782  0.99289137    -0.37800
C3523       C  0.90751042  0.81321788  0.04052672    -0.04400
C3524       C  0.89121881  0.79673102  0.05660126    -0.01500
C3525       C  0.86609552  0.81408291  0.06790781     0.03400
C3526       C  0.85797660  0.84824415  0.06348812    -0.04400
C3527       C  0.87538007  0.86506012  0.04788023    -0.01500
C3528       C  0.89975494  0.84736368  0.03619560     0.03400
C3529       C  0.90108758  0.76232714  0.06184861     0.38100
C3530       C  0.86883646  0.90065116  0.04420012     0.38100
C3531       C  0.91723311  0.86426459  0.01981776     0.36500
C3532       C  0.84902127  0.79702993  0.08438645     0.36500
N3533       N  0.93133065  0.87751612  0.00673258    -0.38300
N3534       N  0.83546054  0.78363828  0.09760599    -0.38300
N3535       N  0.86347362  0.92906151  0.04129378    -0.37800
N3536       N  0.90906008  0.73496470  0.06610106    -0.37800
C3537       C  0.62012894  0.81585594  0.93134571    -0.04400
C3538       C  0.60663762  0.81312173  0.91214578    -0.01500
C3539       C  0.62659264  0.82348230  0.89586695     0.03400
C3540       C  0.66323089  0.82562676  0.89756510    -0.04400
C3541       C  0.67539297  0.83436887  0.91651570    -0.01500
C3542       C  0.65343975  0.83019106  0.93340333     0.03400
C3543       C  0.57239130  0.79931261  0.90861441     0.38100
C3544       C  0.70833718  0.85158415  0.91818194     0.38100
C3545       C  0.66384542  0.84267617  0.95235666     0.36500
C3546       C  0.60806688  0.84064036  0.88010911     0.36500
N3547       N  0.67166389  0.85389646  0.96731086    -0.38300
N3548       N  0.59251005  0.85430719  0.86781762    -0.38300
N3549       N  0.73438195  0.86590235  0.91930016    -0.37800
N3550       N  0.54533430  0.78805005  0.90544997    -0.37800
C3551       C  0.90123104  0.80725073  0.93884155    -0.04400
C3552       C  0.86601756  0.80882768  0.94533592    -0.01500
C3553       C  0.83952843  0.79950939  0.93222969     0.03400
C3554       C  0.84919141  0.78338567  0.91450710    -0.04400
C3555       C  0.87926642  0.79783885  0.90584131    -0.01500
C3556       C  0.90723473  0.80625846  0.91816883     0.03400
C3557       C  0.85725014  0.81998034  0.96504153     0.38100
C3558       C  0.88148710  0.80287245  0.88476544     0.38100
C3559       C  0.94114613  0.81288232  0.90951830     0.36500
C3560       C  0.80330494  0.80608240  0.93679485     0.36500
N3561       N  0.96801736  0.81817784  0.90228263    -0.38300
N3562       N  0.77444705  0.81157214  0.94076434    -0.38300
N3563       N  0.88363407  0.80687621  0.86788849    -0.37800
N3564       N  0.85050607  0.82892561  0.98080945    -0.37800
C3565       C  0.62089864  0.68093104  0.92740774    -0.04400
C3566       C  0.62061522  0.64799368  0.91932800    -0.01500
C3567       C  0.64305359  0.63994473  0.90312173     0.03400
C3568       C  0.66187540  0.66587822  0.89339247    -0.04400
C3569       C  0.65921687  0.69875725  0.90068177    -0.01500
C3570       C  0.64338143  0.70502352  0.91885314     0.03400
C3571       C  0.59904797  0.62214713  0.92835573     0.38100
C3572       C  0.66971972  0.72637001  0.88809812     0.38100
C3573       C  0.65465852  0.73396937  0.92970413     0.36500
C3574       C  0.64668902  0.60555891  0.89640677     0.36500
N3575       N  0.66638617  0.75545139  0.93881796    -0.38300
N3576       N  0.65001899  0.57812749  0.89097349    -0.38300
N3577       N  0.67755391  0.74589680  0.87618801    -0.37800
N3578       N  0.58190897  0.60145226  0.93562761    -0.37800
C3579       C  0.89310130  0.70339951  0.93490452    -0.04400
C3580       C  0.85897287  0.70819149  0.94250352    -0.01500
C3581       C  0.83501411  0.72768161  0.93150432     0.03400
C3582       C  0.84708659  0.74472462  0.91426431    -0.04400
C3583       C  0.87310209  0.72644806  0.90372926    -0.01500
C3584       C  0.89778659  0.70728937  0.91438098     0.03400
C3585       C  0.84934549  0.69470267  0.96173701     0.38100
C3586       C  0.87649912  0.72911703  0.88260100     0.38100
C3587       C  0.92815428  0.69337342  0.90444907     0.36500
C3588       C  0.79939742  0.73140007  0.93835973     0.36500
N3589       N  0.95224123  0.68220827  0.89637501    -0.38300
N3590       N  0.77097914  0.73376103  0.94409163    -0.38300
N3591       N  0.88109139  0.73025995  0.86575192    -0.37800
N3592       N  0.84163356  0.68391202  0.97708536    -0.37800
C3593       C  0.90754858  0.94098021  0.18029370    -0.04400
C3594       C  0.90534646  0.90699375  0.17441470    -0.01500
C3595       C  0.87587591  0.89570538  0.16405404     0.03400
C3596       C  0.85040265  0.91912634  0.15725788    -0.04400
C3597       C  0.85259019  0.95304599  0.16325892    -0.01500
C3598       C  0.87934652  0.96307300  0.17602843     0.03400
C3599       C  0.93333618  0.88356746  0.17909550     0.38100
C3600       C  0.82317014  0.47392323  0.16368671     0.38100
C3601       C  0.87589505  0.48858988  0.19128524     0.36500
C3602       C  0.87205039  0.86005552  0.15998603     0.36500
N3603       N  0.87238691  0.51252182  0.20073207    -0.38300
N3604       N  0.86883860  0.83163206  0.15674778    -0.38300
N3605       N  0.80143408  0.49363717  0.16062105    -0.37800
N3606       N  0.95580278  0.86487218  0.18261615    -0.37800
C3607       C  0.66433005  0.91280483  0.15124755    -0.04400
C3608       C  0.64374216  0.94152993  0.14666666    -0.01500
C3609       C  0.61305914  0.94918022  0.15770498     0.03400
C3610       C  0.60398315  0.93011885  0.17495243    -0.04400
C3611       C  0.62436585  0.90060468  0.17908281    -0.01500
C3612       C  0.65332606  0.89153550  0.16693529     0.03400
C3613       C  0.65443104  0.96353728  0.13046668     0.38100
C3614       C  0.61573123  0.87881658  0.19571263     0.38100
C3615       C  0.67163141  0.85984742  0.17044017     0.36500
C3616       C  0.59166257  0.97741273  0.15122652     0.36500
N3617       N  0.68600355  0.83445641  0.17321274    -0.38300
N3618       N  0.57485519  0.99983742  0.14559376    -0.38300
N3619       N  0.60971015  0.86101529  0.20894065    -0.37800
N3620       N  0.66330244  0.98120530  0.11769010    -0.37800
C3621       C  0.91640590  0.56282021  0.17337443    -0.04400
C3622       C  0.89654086  0.59294844  0.17586032    -0.01500
C3623       C  0.86732897  0.59998064  0.16388824     0.03400
C3624       C  0.85680566  0.57663866  0.14965717    -0.04400
C3625       C  0.87749531  0.54755866  0.14636680    -0.01500
C3626       C  0.90775226  0.54128496  0.15757158     0.03400
C3627       C  0.90685801  0.61768358  0.19019913     0.38100
C3628       C  0.86743397  0.52398067  0.13124876     0.38100
C3629       C  0.92950841  0.51248462  0.15254747     0.36500
C3630       C  0.84853333  0.63167919  0.16589163     0.36500
N3631       N  0.94983306  0.99924912  0.14713919    -0.38300
N3632       N  0.83371612  0.65707740  0.16748397    -0.38300
N3633       N  0.86679296  0.02090637  0.11639403    -0.37800
N3634       N  0.91485974  0.63772154  0.20151887    -0.37800
C3635       C  0.61085699  0.55549985  0.17557005    -0.04400
C3636       C  0.61518303  0.58771779  0.16685801    -0.01500
C3637       C  0.64589277  0.59526587  0.15604517     0.03400
C3638       C  0.67119203  0.56977417  0.15240013    -0.04400
C3639       C  0.66824207  0.53857757  0.16254448    -0.01500
C3640       C  0.63935350  0.53251046  0.17508726     0.03400
C3641       C  0.58900886  0.61371328  0.17003947     0.38100
C3642       C  0.69551625  0.51318300  0.16076152     0.38100
C3643       C  0.64114368  0.50458391  0.18906269     0.36500
C3644       C  0.65168318  0.62928767  0.14863709     0.36500
N3645       N  0.64541802  0.98158924  0.19876684    -0.38300
N3646       N  0.65661880  0.65639209  0.14274401    -0.38300
N3647       N  0.71675834  0.99332086  0.15697032    -0.37800
N3648       N  0.56828980  0.63456511  0.17276929    -0.37800
C3649       C  0.57614713  0.61432701  0.69892819    -0.04400
C3650       C  0.61292355  0.61357487  0.69655891    -0.01500
C3651       C  0.62981265  0.63812622  0.68464239     0.03400
C3652       C  0.61008808  0.66235700  0.67418928    -0.04400
C3653       C  0.57364033  0.66331660  0.67654434    -0.01500
C3654       C  0.55702538  0.64099714  0.68982930     0.03400
C3655       C  0.63377643  0.58872517  0.70705545     0.38100
C3656       C  0.55301466  0.68636515  0.66454451     0.38100
C3657       C  0.52057770  0.64690765  0.69449749     0.36500
C3658       C  0.66750614  0.63868871  0.68308538     0.36500
N3659       N  0.99831189  0.65360632  0.69617564    -0.38300
N3660       N  0.69757276  0.63952408  0.68183639    -0.38300
N3661       N  0.04551830  0.70579241  0.65412448    -0.37800
N3662       N  0.65095402  0.56918921  0.71533077    -0.37800
C3663       C  0.60944650  0.83335228  0.67392305    -0.04400
C3664       C  0.62851965  0.86141853  0.68016216    -0.01500
C3665       C  0.61233547  0.88624585  0.69187903     0.03400
C3666       C  0.57737757  0.88214379  0.69841768    -0.04400
C3667       C  0.55971547  0.85191863  0.69380523    -0.01500
C3668       C  0.57505662  0.82860772  0.68085096     0.03400
C3669       C  0.66512075  0.86424491  0.67487736     0.38100
C3670       C  0.52645669  0.84332744  0.70280849     0.38100
C3671       C  0.55535021  0.79942557  0.67480045     0.36500
C3672       C  0.63249976  0.91512467  0.69784734     0.36500
N3673       N  0.53958102  0.77607752  0.67024238    -0.38300
N3674       N  0.64893198  0.93801728  0.70245979    -0.38300
N3675       N  0.50067237  0.83471658  0.71020851    -0.37800
N3676       N  0.69438593  0.86630931  0.67081524    -0.37800
C3677       C  0.93805438  0.60885474  0.68141928    -0.04400
C3678       C  0.95953460  0.61070934  0.66440661    -0.01500
C3679       C  0.95510627  0.63734815  0.65083567     0.03400
C3680       C  0.92795823  0.66094159  0.65365567    -0.04400
C3681       C  0.90569160  0.65846005  0.67028104    -0.01500
C3682       C  0.91148664  0.63301038  0.68452790     0.03400
C3683       C  0.98761758  0.58644000  0.66146916     0.38100
C3684       C  0.87675301  0.68190306  0.67259523     0.38100
C3685       C  0.89062801  0.63205366  0.70247323     0.36500
C3686       C  0.97918276  0.64130518  0.63433713     0.36500
N3687       N  0.87413869  0.63170369  0.71685111    -0.38300
N3688       N  0.48437731  0.63023580  0.61981929    -0.38300
N3689       N  0.85346067  0.70038182  0.67438578    -0.37800
N3690       N  0.49276124  0.55432893  0.65860143    -0.37800
C3691       C  0.94087612  0.83335004  0.65589309    -0.04400
C3692       C  0.92455479  0.83056759  0.67464307    -0.01500
C3693       C  0.93324891  0.85290464  0.68984117     0.03400
C3694       C  0.95664646  0.87960010  0.68611127    -0.04400
C3695       C  0.97413724  0.88145016  0.66766221    -0.01500
C3696       C  0.96654781  0.85821015  0.65270779     0.03400
C3697       C  0.89873479  0.80460524  0.67834123     0.38100
C3698       C  0.00134765  0.90620042  0.66441903     0.38100
C3699       C  0.98588185  0.85924689  0.63423184     0.36500
C3700       C  0.91883904  0.84755146  0.70942289     0.36500
N3701       N  0.00153711  0.85999842  0.61956379    -0.38300
N3702       N  0.90794958  0.84201429  0.72507530    -0.38300
N3703       N  0.51546749  0.92531907  0.66023700    -0.37800
N3704       N  0.87832469  0.78375907  0.68133020    -0.37800
C3705       C  0.83124342  0.61891814  0.53412972    -0.04400
C3706       C  0.86754132  0.61674549  0.53771749    -0.01500
C3707       C  0.88408472  0.64140633  0.54916277     0.03400
C3708       C  0.86426151  0.66723015  0.55811388    -0.04400
C3709       C  0.82824621  0.66944078  0.55464705    -0.01500
C3710       C  0.81230390  0.64697124  0.54168152     0.03400
C3711       C  0.88836653  0.59009705  0.52891125     0.38100
C3712       C  0.80721877  0.69395672  0.56527949     0.38100
C3713       C  0.77685814  0.65417715  0.53578561     0.36500
C3714       C  0.92153258  0.64036173  0.55168275     0.36500
N3715       N  0.74911386  0.66180867  0.53086706    -0.38300
N3716       N  0.95146027  0.63964935  0.55352053    -0.38300
N3717       N  0.79059382  0.71305451  0.57415806    -0.37800
N3718       N  0.90516844  0.56895694  0.52188817    -0.37800
C3719       C  0.83024394  0.88809568  0.53718055    -0.04400
C3720       C  0.86565980  0.89099325  0.54274243    -0.01500
C3721       C  0.88125919  0.86618836  0.55493728     0.03400
C3722       C  0.86137996  0.83928523  0.56260567    -0.04400
C3723       C  0.82624685  0.83618026  0.55717606    -0.01500
C3724       C  0.81128346  0.85932555  0.54376164     0.03400
C3725       C  0.88702813  0.91842808  0.53530427     0.38100
C3726       C  0.80526887  0.80910407  0.56551063     0.38100
C3727       C  0.77684305  0.85210807  0.53643751     0.36500
C3728       C  0.91813470  0.86774586  0.55930217     0.36500
N3729       N  0.74994493  0.84455930  0.53045499    -0.38300
N3730       N  0.94753138  0.86855855  0.56282791    -0.38300
N3731       N  0.78827201  0.78775204  0.57215970    -0.37800
N3732       N  0.90495802  0.93988234  0.52965623    -0.37800
C3733       C  0.69262466  0.61560320  0.54913291    -0.04400
C3734       C  0.66554873  0.63937396  0.54644582    -0.01500
C3735       C  0.65871856  0.66356368  0.56105799     0.03400
C3736       C  0.67901784  0.66391526  0.57828308    -0.04400
C3737       C  0.70664179  0.64071827  0.58070060    -0.01500
C3738       C  0.71350447  0.61662388  0.56613830     0.03400
C3739       C  0.64485053  0.63896120  0.52871912     0.38100
C3740       C  0.72863159  0.64240572  0.59791361     0.38100
C3741       C  0.74330282  0.59408409  0.56818812     0.36500
C3742       C  0.63119398  0.68844672  0.55834999     0.36500
N3743       N  0.76739751  0.57657883  0.56985557    -0.38300
N3744       N  0.60952867  0.70862021  0.55627220    -0.38300
N3745       N  0.74618314  0.64388666  0.61162043    -0.37800
N3746       N  0.62830508  0.63880959  0.51457376    -0.37800
C3747       C  0.69343400  0.88895244  0.54990235    -0.04400
C3748       C  0.66701006  0.86537798  0.54631741    -0.01500
C3749       C  0.65945947  0.83998425  0.56048254     0.03400
C3750       C  0.67887449  0.83770737  0.57804978    -0.04400
C3751       C  0.70594377  0.86079306  0.58129946    -0.01500
C3752       C  0.71264794  0.88681820  0.56749888     0.03400
C3753       C  0.64712814  0.86788593  0.52830533     0.38100
C3754       C  0.72766376  0.85707714  0.59854374     0.38100
C3755       C  0.73989064  0.91111382  0.57117110     0.36500
C3756       C  0.63170427  0.81622337  0.55706252     0.36500
N3757       N  0.76140265  0.93073246  0.57397445    -0.38300
N3758       N  0.60961702  0.79716199  0.55438144    -0.38300
N3759       N  0.74528213  0.85400324  0.61217902    -0.37800
N3760       N  0.63133864  0.87012245  0.51391538    -0.37800
C3761       C  0.57663273  0.60523695  0.30092601    -0.04400
C3762       C  0.59203879  0.63538353  0.29279537    -0.01500
C3763       C  0.60104840  0.66285787  0.30500727     0.03400
C3764       C  0.59081979  0.66338804  0.32504885    -0.04400
C3765       C  0.57609018  0.63324709  0.33317208    -0.01500
C3766       C  0.57266104  0.60376000  0.32164544     0.03400
C3767       C  0.59989070  0.63886201  0.27191235     0.38100
C3768       C  0.56438524  0.63206135  0.35355119     0.38100
C3769       C  0.56899366  0.57125585  0.33146156     0.36500
C3770       C  0.62253279  0.68991418  0.29704642     0.36500
N3771       N  0.56677742  0.54520342  0.33928320    -0.38300
N3772       N  0.63984809  0.71137913  0.29076731    -0.38300
N3773       N  0.55499350  0.63091727  0.36980469    -0.37800
N3774       N  0.60646405  0.64226006  0.25532554    -0.37800
C3775       C  0.57496368  0.91025102  0.30630667    -0.04400
C3776       C  0.55513977  0.90174147  0.32340569    -0.01500
C3777       C  0.56013983  0.87009348  0.33307428     0.03400
C3778       C  0.58583789  0.84688349  0.32634526    -0.04400
C3779       C  0.60719034  0.85623533  0.31024331    -0.01500
C3780       C  0.60232214  0.88768650  0.30054464     0.03400
C3781       C  0.52923120  0.92509137  0.33109792     0.38100
C3782       C  0.63516552  0.83379481  0.30399102     0.38100
C3783       C  0.62654347  0.89687992  0.28484269     0.36500
C3784       C  0.53858394  0.86126486  0.35004115     0.36500
N3785       N  0.64604633  0.90374370  0.27233459    -0.38300
N3786       N  0.52115902  0.85429649  0.36348809    -0.38300
N3787       N  0.65751510  0.81603572  0.29891947    -0.37800
N3788       N  0.50876875  0.94374026  0.33745706    -0.37800
C3789       C  0.64351231  0.66920333  0.42118791    -0.04400
C3790       C  0.62147390  0.64336692  0.42814817    -0.01500
C3791       C  0.63438534  0.61833943  0.44118347     0.03400
C3792       C  0.66888783  0.62034160  0.44838046    -0.04400
C3793       C  0.68979536  0.64826758  0.44240095    -0.01500
C3794       C  0.67787697  0.67107792  0.42792278     0.03400
C3795       C  0.58546354  0.64267336  0.42191856     0.38100
C3796       C  0.72314436  0.65499101  0.45126542     0.38100
C3797       C  0.70139032  0.69592769  0.41931281     0.36500
C3798       C  0.61151713  0.59126327  0.44753893     0.36500
N3799       N  0.72005116  0.71534457  0.41206041    -0.38300
N3800       N  0.59297382  0.56974220  0.45238101    -0.38300
N3801       N  0.74921485  0.66234083  0.45837142    -0.37800
N3802       N  0.55664612  0.64218633  0.41712094    -0.37800
C3803       C  0.67073610  0.88942425  0.44820588    -0.04400
C3804       C  0.69110138  0.86069592  0.44303436    -0.01500
C3805       C  0.67892862  0.83767524  0.42908804     0.03400
C3806       C  0.64493316  0.84079411  0.42162504    -0.04400
C3807       C  0.62355191  0.86794576  0.42769674    -0.01500
C3808       C  0.63662941  0.89269102  0.44044516     0.03400
C3809       C  0.72466709  0.85400004  0.45192857     0.38100
C3810       C  0.58790922  0.87026008  0.42090557     0.38100
C3811       C  0.61435546  0.92096099  0.44584156     0.36500
C3812       C  0.70219577  0.81148001  0.42180598     0.36500
N3813       N  0.59643776  0.94351254  0.44992771    -0.38300
N3814       N  0.72138330  0.79116221  0.41598919    -0.38300
N3815       N  0.55939136  0.87209019  0.41562948    -0.37800
N3816       N  0.75101040  0.84716841  0.45912457    -0.37800
C3817       C  0.93663664  0.60106112  0.30321788    -0.04400
C3818       C  0.90742316  0.62117056  0.29717454    -0.01500
C3819       C  0.89815760  0.65153345  0.30701565     0.03400
C3820       C  0.91799464  0.66325014  0.32287843    -0.04400
C3821       C  0.94641748  0.64292800  0.32929608    -0.01500
C3822       C  0.95410007  0.61132751  0.32039329     0.03400
C3823       C  0.88472010  0.60964507  0.28174477     0.38100
C3824       C  0.96646368  0.65362919  0.34606852     0.38100
C3825       C  0.97670000  0.58773537  0.33051239     0.36500
C3826       C  0.86728513  0.67032808  0.30115362     0.36500
N3827       N  0.99294526  0.56815219  0.33929427    -0.38300
N3828       N  0.84270894  0.68535532  0.29645326    -0.38300
N3829       N  0.98214352  0.66220417  0.35955266    -0.37800
N3830       N  0.86599004  0.60091054  0.26961555    -0.37800
C3831       C  0.92171798  0.84644747  0.32536171    -0.04400
C3832       C  0.90051433  0.87611857  0.32411554    -0.01500
C3833       C  0.91307710  0.90616012  0.31483121     0.03400
C3834       C  0.94679045  0.90719321  0.30629734    -0.04400
C3835       C  0.96678007  0.87686040  0.30632206    -0.01500
C3836       C  0.95530244  0.84768457  0.31673984     0.03400
C3837       C  0.86551513  0.87585592  0.33238732     0.38100
C3838       C  0.49526578  0.87498805  0.29397201     0.38100
C3839       C  0.97828489  0.81879908  0.31875788     0.36500
C3840       C  0.89037102  0.93541078  0.31278998     0.36500
N3841       N  0.49611790  0.79897373  0.32393031    -0.38300
N3842       N  0.87227755  0.95871175  0.31088397    -0.38300
N3843       N  0.51870037  0.87091879  0.28338282    -0.37800
N3844       N  0.83770179  0.87583940  0.33913999    -0.37800
C3845       C  0.80651857  0.61677439  0.43879912    -0.04400
C3846       C  0.78917751  0.62121159  0.42070590    -0.01500
C3847       C  0.79935666  0.64718695  0.40767282     0.03400
C3848       C  0.82722707  0.66831870  0.41257832    -0.04400
C3849       C  0.84461622  0.66378484  0.43067895    -0.01500
C3850       C  0.83395075  0.63820961  0.44390407     0.03400
C3851       C  0.76053970  0.59937918  0.41558546     0.38100
C3852       C  0.87416267  0.68472238  0.43535929     0.38100
C3853       C  0.85170368  0.63321023  0.46250212     0.36500
C3854       C  0.78183542  0.65168284  0.38897799     0.36500
N3855       N  0.86568024  0.62896459  0.47735978    -0.38300
N3856       N  0.76812572  0.65506579  0.37397835    -0.38300
N3857       N  0.89781117  0.70136238  0.43902585    -0.37800
N3858       N  0.73767842  0.58213799  0.41134915    -0.37800
C3859       C  0.84017336  0.84192969  0.41503738    -0.04400
C3860       C  0.81328101  0.86403237  0.40894892    -0.01500
C3861       C  0.80050939  0.88898074  0.42177580     0.03400
C3862       C  0.81385601  0.89138081  0.44099539    -0.04400
C3863       C  0.83988625  0.86857168  0.44740330    -0.01500
C3864       C  0.85339042  0.84411851  0.43433539     0.03400
C3865       C  0.79740296  0.85980647  0.38985224     0.38100
C3866       C  0.85237888  0.87019784  0.46746000     0.38100
C3867       C  0.88032130  0.82076738  0.44078961     0.36500
C3868       C  0.77218996  0.91106454  0.41560412     0.36500
N3869       N  0.90174960  0.80201822  0.44591151    -0.38300
N3870       N  0.74945298  0.92860478  0.41086251    -0.38300
N3871       N  0.86184320  0.87161008  0.48355830    -0.37800
N3872       N  0.78441511  0.85607036  0.37474290    -0.37800
loop_ 
_geom_bond_atom_site_label_1 
_geom_bond_atom_site_label_2 
_geom_bond_distance 
_geom_bond_site_symmetry_2 
_ccdc_geom_bond_type 
N1            C6   1.353       .  A
N1            C5   1.351       .  A
N1           H33   1.040       .  S
N2            C9   1.360       .  A
N2           C10   1.359       .  A
N3            C8   1.358       .  A
N3            C7   1.354       .  A
N3           H34   1.033       .  S
N4           C11   1.345       .  A
N4           C12   1.345       .  A
C5           C13   1.388       .  A
C5           C21   1.415       .  A
C6           C22   1.409       .  A
C6           C14   1.385       .  A
C7           C15   1.392       .  A
C7           C24   1.429       .  A
C8           C23   1.419       .  A
C8           C16   1.383       .  A
C9           C21   1.435       .  A
C9           C17   1.387       .  A
C10          C24   1.434       .  A
C10          C18   1.386       .  A
C11          C19   1.386       .  A
C11          C22   1.402       .  A
C12          C20   1.386       .  A
C12          C23   1.405       .  A
C13          C14   1.374       .  A
C13          H25   1.083       .  S
C14          H26   1.082       .  S
C15          C16   1.371       .  A
C15          H27   1.081       .  S
C16          H28   1.082       .  S
C17          C18   1.385       .  A
C17          H29   1.082       .  S
C18          H30   1.082       .  S
C19          C20   1.369       .  A
C19          H31   1.082       .  S
C20          H32   1.082       .  S
C21         C927   1.523       .  S
C22         C955   1.483       .  S
C23         C944   1.493       .  S
C24         C916   1.516       .  S
N35          C40   1.355       .  A
N35          C39   1.353       .  A
N35          H67   1.042       .  S
N36          C43   1.360       .  A
N36          C44   1.359       .  A
N37          C42   1.355       .  A
N37          C41   1.349       .  A
N37          H68   1.040       .  S
N38          C45   1.348       .  A
N38          C46   1.348       .  A
C39          C47   1.388       .  A
C39          C55   1.417       .  A
C40          C56   1.413       .  A
C40          C48   1.385       .  A
C41          C49   1.389       .  A
C41          C58   1.412       .  A
C42          C57   1.412       .  A
C42          C50   1.386       .  A
C43          C55   1.435       .  A
C43          C51   1.387       .  A
C44          C58   1.432       .  A
C44          C52   1.386       .  A
C45          C53   1.387       .  A
C45          C56   1.409       .  A
C46          C54   1.386       .  A
C46          C57   1.410       .  A
C47          C48   1.376       .  A
C47          H59   1.082       .  S
C48          H60   1.082       .  S
C49          C50   1.372       .  A
C49          H61   1.082       .  S
C50          H62   1.082       .  S
C51          C52   1.389       .  A
C51          H63   1.082       .  S
C52          H64   1.082       .  S
C53          C54   1.374       .  A
C53          H65   1.082       .  S
C54          H66   1.082       .  S
C55         C860   1.531       .  S
C56         C885   1.495       .  S
C57         C902   1.496       .  S
C58         C874   1.513       .  S
O69         Zr81   2.459       .  S
O69          C71   1.292       .  A
O70        Zr107   2.412       .  S
O70          C71   1.283       .  A
C71         C899   1.497       .  S
O72       Zr1052   2.433   1_545  S
O72          C74   1.284       .  A
O73        Zr108   2.424       .  S
O73          C74   1.285       .  A
C74         C941   1.476       .  S
O75         Zr84   2.426       .  S
O75          C77   1.284       .  A
O76        Zr107   2.409       .  S
O76          C77   1.282       .  A
C77         C958   1.469       .  S
O78       Zr1049   2.472       .  S
O78          C80   1.294       .  A
O79        Zr108   2.414       .  S
O79          C80   1.285       .  A
C80         C888   1.503       .  S
Zr81       O1046   2.461       .  S
Zr81         O82   2.436       .  S
Zr81       O1051   2.434       .  S
Zr81         O87   2.370       .  S
Zr81        O113   2.373       .  S
Zr81       O1056   2.371       .  S
Zr81       O1079   2.376       .  S
O82         H125   0.990       .  S
O83       Zr1049   2.434       .  S
O83        H1092   0.990   1_545  S
O83        H1096   0.990       .  S
Zr84       O1040   2.427       .  S
Zr84         O85   2.436       .  S
Zr84       O1054   2.435       .  S
Zr84         O87   2.365       .  S
Zr84        O112   2.369       .  S
Zr84       O1056   2.363       .  S
Zr84       O1082   2.380       .  S
O85         H129   0.990       .  S
O85        H1094   0.990       .  S
O86       Zr1052   2.435   1_545  S
O86        H1087   0.990   1_545  S
O87        Zr107   2.373       .  S
O88        Zr108   2.381       .  S
O88       Zr1049   2.374       .  S
O88       Zr1052   2.364   1_545  S
O88         H115   0.965       .  S
O89       Zr1069   2.424       .  S
O89          C91   1.283       .  A
O90        Zr108   2.421       .  S
O90          C91   1.284       .  A
C91         C829   1.469       .  S
O92        Zr104   2.444       .  S
O92          C94   1.288       .  A
O93        Zr107   2.402       .  S
O93          C94   1.282       .  A
C94         C815   1.486       .  S
O95       Zr1072   2.466   1_545  S
O95          C97   1.293       .  A
O96        Zr108   2.416       .  S
O96          C97   1.285       .  A
C97         C801   1.501       .  S
O98        Zr101   2.427       .  S
O98         C100   1.284       .  A
O99        Zr107   2.408       .  S
O99         C100   1.282       .  A
C100        C843   1.469       .  S
Zr101      O1057   2.432       .  S
Zr101       O102   2.438       .  S
Zr101       O103   2.435       .  S
Zr101       O110   2.370       .  S
Zr101       O113   2.379       .  S
Zr101      O1077   2.366       .  S
Zr101      O1079   2.378       .  S
O102       H1090   0.990       .  S
O102       H1095   0.990       .  S
O103       H1091   0.990       .  S
Zr104      O1063   2.463       .  S
Zr104       O106   2.433       .  S
Zr104      O1073   2.437       .  S
Zr104       O110   2.377       .  S
Zr104       O112   2.372       .  S
Zr104      O1077   2.363       .  S
Zr104      O1082   2.369       .  S
O105      Zr1072   2.436       .  S
O105       H1089   0.990   1_565  S
O106       H1088   0.989       .  S
O106       H1098   0.989       .  S
Zr107       O110   2.375       .  S
Zr107       O112   2.382       .  S
Zr107       O113   2.387       .  S
Zr108       O109   2.381       .  S
Zr108       O111   2.382       .  S
Zr108       O114   2.379       .  S
O109      Zr1069   2.367       .  S
O109      Zr1072   2.369   1_545  S
O109        H117   0.965       .  S
O111      Zr1049   2.374       .  S
O111      Zr1069   2.372       .  S
O112        H116   0.966       .  S
O113        H118   0.966       .  S
O114      Zr1052   2.372   1_545  S
O114      Zr1072   2.376   1_545  S
H119       O1054   0.990       .  S
H120       O1074   0.990   1_545  S
H121       O1073   0.990       .  S
H122       O1070   0.990       .  S
H123       O1071   0.990       .  S
H124       O1051   0.990       .  S
H126       O1053   0.990   1_545  S
H127       O1070   0.990       .  S
H128       O1051   0.990       .  S
H130       O1074   0.990   1_545  S
N131        C136   1.350       .  A
N131        C135   1.354       .  A
N131        H163   1.041       .  S
N132        C139   1.349       .  A
N132        C140   1.346       .  A
N133        C138   1.351       .  A
N133        C137   1.347       .  A
N133        H164   1.041       .  S
N134        C141   1.346       .  A
N134        C142   1.351       .  A
C135        C143   1.387       .  A
C135        C151   1.417       .  A
C136        C152   1.414       .  A
C136        C144   1.388       .  A
C137        C145   1.387       .  A
C137        C154   1.408       .  A
C138        C153   1.410       .  A
C138        C146   1.386       .  A
C139        C151   1.409       .  A
C139        C147   1.385       .  A
C140        C154   1.406       .  A
C140        C148   1.386       .  A
C141        C149   1.388       .  A
C141        C152   1.410       .  A
C142        C150   1.385       .  A
C142        C153   1.410       .  A
C143        C144   1.380       .  A
C143        H155   1.082       .  S
C144        H156   1.082       .  S
C145        C146   1.378       .  A
C145        H157   1.082       .  S
C146        H158   1.082       .  S
C147        C148   1.373       .  A
C147        H159   1.081       .  S
C148        H160   1.082       .  S
C149        C150   1.373       .  A
C149        H161   1.082       .  S
C150        H162   1.082       .  S
C151        C787   1.504       .  S
C152        C818   1.485       .  S
C153        C804   1.497       .  S
C154        C776   1.481       .  S
N165        C170   1.350       .  A
N165        C169   1.353       .  A
N165        H197   1.040       .  S
N166        C173   1.350       .  A
N166        C174   1.349       .  A
N167        C172   1.352       .  A
N167        C171   1.351       .  A
N167        H198   1.039       .  S
N168        C175   1.349       .  A
N168        C176   1.350       .  A
C169        C177   1.388       .  A
C169        C185   1.415       .  A
C170        C186   1.411       .  A
C170        C178   1.386       .  A
C171        C179   1.388       .  A
C171        C188   1.414       .  A
C172        C187   1.410       .  A
C172        C180   1.385       .  A
C173        C185   1.413       .  A
C173        C181   1.386       .  A
C174        C188   1.413       .  A
C174        C182   1.386       .  A
C175        C183   1.387       .  A
C175        C186   1.410       .  A
C176        C184   1.386       .  A
C176        C187   1.408       .  A
C177        C178   1.377       .  A
C177        H189   1.082       .  S
C178        H190   1.082       .  S
C179        C180   1.377       .  A
C179        H191   1.082       .  S
C180        H192   1.082       .  S
C181        C182   1.375       .  A
C181        H193   1.083       .  S
C182        H194   1.082       .  S
C183        C184   1.372       .  A
C183        H195   1.082       .  S
C184        H196   1.083       .  S
C185        C759   1.498       .  S
C186        C846   1.488       .  S
C187        C832   1.490       .  S
C188        C748   1.492       .  S
O199       Zr211   2.418       .  S
O199        C201   1.284       .  A
O200      Zr2173   2.508       .  S
O200        C201   1.305       .  A
C201        C913   1.523       .  S
O202       Zr214   2.421       .  S
O202        C204   1.283       .  A
O203      Zr3142   2.504       .  S
O203        C204   1.303       .  A
C204        C689   1.497       .  S
O205       Zr214   2.420       .  S
O205        C207   1.283       .  A
O206      Zr3141   2.521       .  S
O206        C207   1.307       .  A
C207        C930   1.504       .  S
O208       Zr211   2.453       .  S
O208        C210   1.291       .  A
O209      Zr2174   2.459       .  S
O209        C210   1.295       .  A
C210        C717   1.517       .  S
Zr211       O212   2.433       .  S
Zr211       O213   2.435       .  S
Zr211       O217   2.394       .  S
Zr211       O218   2.336       .  S
Zr211      O2177   2.377       .  S
Zr211      O2179   2.357       .  S
O212        H255   0.990       .  S
O213        H254   0.990       .  S
O213        H258   0.990       .  S
Zr214       O215   2.436       .  S
Zr214       O216   2.436       .  S
Zr214      O1186   2.356       .  S
Zr214      O1185   2.391       .  S
Zr214      O2178   2.346       .  S
Zr214      O2180   2.391       .  S
O215        H256   0.990       .  S
O215        H259   0.990       .  S
O216        H249   0.990       .  S
O217      Zr1182   2.380   1_545  S
O217      Zr2173   2.408       .  S
O218      Zr1182   2.352   1_545  S
O218      Zr2174   2.385       .  S
O218        H245   0.963       .  S
O219       Zr231   2.425       .  S
O219        C221   1.284       .  A
O220       Zr238   2.474       .  S
O220        C221   1.297       .  A
C221        C731   1.484       .  S
O222       Zr234   2.440       .  S
O222        C224   1.290       .  A
O223      Zr1205   2.497       .  S
O223        C224   1.303       .  A
C224        C871   1.523       .  S
O225       Zr234   2.480       .  S
O225        C227   1.297       .  A
O226      Zr1206   2.455       .  S
O226        C227   1.294       .  A
C227        C706   1.523       .  S
O228       Zr231   2.420       .  S
O228        C230   1.283       .  A
O229       Zr237   2.527       .  S
O229        C230   1.309       .  A
C230        C857   1.539       .  S
Zr231       O232   2.435       .  S
Zr231       O233   2.437       .  S
Zr231       O239   2.355       .  S
Zr231       O240   2.385       .  S
Zr231       O243   2.352       .  S
Zr231       O241   2.379       .  S
O232        H252   0.990       .  S
O232        H257   0.990       .  S
O233        H253   0.990       .  S
Zr234       O235   2.435       .  S
Zr234       O236   2.430       .  S
Zr234       O244   2.385       .  S
Zr234       O242   2.352       .  S
Zr234      O1208   2.396       .  S
Zr234      O1207   2.332       .  S
O235        H251   0.990       .  S
O236        H250   0.990       .  S
O236        H260   0.990       .  S
Zr237      O2136   2.502   1_455  S
Zr237      O3110   2.531   1_445  S
Zr237      O1191   2.496   1_545  S
Zr237       O240   2.410       .  S
Zr237       O243   2.400       .  S
Zr237      O2153   2.412   1_455  S
Zr237      O1210   2.392   1_545  S
Zr238      O3107   2.496   1_445  S
Zr238      O2145   2.442   1_455  S
Zr238      O1194   2.456   1_545  S
Zr238       O239   2.386       .  S
Zr238       O241   2.400       .  S
Zr238      O2154   2.386   1_455  S
Zr238      O1212   2.392   1_545  S
O239      Zr1202   2.331   1_545  S
O239        H247   0.962   1_545  S
O240      Zr1202   2.391   1_545  S
O241      Zr2147   2.376   1_455  S
O242      Zr2150   2.346   1_455  S
O242      Zr1205   2.396       .  S
O242        H246   0.962       .  S
O243      Zr2147   2.357   1_455  S
O243        H248   0.964       .  S
O244      Zr2150   2.383   1_455  S
O244      Zr1206   2.394       .  S
O261      Zr2209   2.469       .  S
O261        C263   1.292       .  A
O262       Zr299   2.399       .  S
O262        C263   1.281       .  A
C263        C647   1.498       .  S
O264       Zr276   2.455       .  S
O264        C266   1.288       .  A
O265       Zr300   2.414       .  S
O265        C266   1.285       .  A
C266        C661   1.489       .  S
O267      Zr2212   2.443       .  S
O267        C269   1.288       .  A
O268       Zr299   2.411       .  S
O268        C269   1.285       .  A
C269        C675   1.489       .  S
O270       Zr273   2.418       .  S
O270        C272   1.284       .  A
O271       Zr300   2.466       .  S
O271        C272   1.294       .  A
C272        C633   1.490       .  S
Zr273      O2197   2.486   1_455  S
Zr273       O274   2.432       .  S
Zr273       O275   2.435       .  S
Zr273       O280   2.397       .  S
Zr273       O303   2.386       .  S
Zr273      O2215   2.355   1_455  S
Zr273      O2241   2.347   1_455  S
O274       H2253   0.990       .  S
O275        H320   0.990       .  S
O275       H2252   0.990   1_455  S
Zr276      O2203   2.446   1_455  S
Zr276       O278   2.436   1_455  S
Zr276      O2213   2.436       .  S
Zr276       O280   2.371       .  S
Zr276       O306   2.366       .  S
Zr276      O2215   2.376   1_455  S
Zr276      O2240   2.366   1_455  S
O277      Zr2212   2.437       .  S
O277       H2254   0.990       .  S
O277       H2257   0.990       .  S
O278       H2247   0.990       .  S
O279       Zr299   2.371       .  S
O279      Zr2209   2.362       .  S
O279      Zr2212   2.370       .  S
O280       Zr300   2.399       .  S
O280        H307   0.965       .  S
O281       Zr293   2.431       .  S
O281        C283   1.286       .  A
O282       Zr300   2.430   1_554  S
O282        C283   1.288       .  A
C283        C605   1.485       .  S
O284      Zr2232   2.449       .  S
O284        C286   1.290       .  A
O285       Zr299   2.378   1_554  S
O285        C286   1.277       .  A
C286        C591   1.487       .  S
O287       Zr296   2.427       .  S
O287        C289   1.285       .  A
O288       Zr300   2.463       .  S
O288        C289   1.295   1_556  A
C289        C577   1.498       .  S
O290      Zr2229   2.437       .  S
O290        C292   1.286       .  A
O291       Zr299   2.444   1_554  S
O291        C292   1.289       .  A
C292        C619   1.485       .  S
Zr293      O2226   2.441   1_455  S
Zr293       O294   2.432       .  S
Zr293       O295   2.436       .  S
Zr293       O301   2.370       .  S
Zr293       O303   2.383   1_554  S
Zr293      O2238   2.375   1_455  S
Zr293      O2241   2.370   1_454  S
O294        H314   0.990       .  S
O294        H319   0.990       .  S
O295        H315   0.990       .  S
Zr296      O2220   2.443   1_455  S
Zr296       O297   2.435       .  S
Zr296       O298   2.430   1_554  S
Zr296       O301   2.372       .  S
Zr296       O306   2.372   1_554  S
Zr296      O2238   2.376   1_455  S
Zr296      O2240   2.359   1_454  S
O297       H2249   0.990       .  S
O298        H312   0.990       .  S
O298        H322   0.990   1_556  S
Zr299       O302   2.373   1_556  S
Zr299       O304   2.384       .  S
Zr299       O305   2.372       .  S
Zr300       O301   2.386   1_556  S
Zr300       O303   2.396       .  S
Zr300       O306   2.386       .  S
O301        H309   0.965       .  S
O302      Zr2229   2.374       .  S
O302      Zr2232   2.373       .  S
O304      Zr2212   2.367       .  S
O304      Zr2232   2.355   1_556  S
O304        H308   0.966       .  S
O305      Zr2209   2.350       .  S
O305      Zr2229   2.370   1_556  S
O305        H310   0.966       .  S
H311       O2214   0.989       .  S
H313       O2233   0.990       .  S
H316       O2211   0.990       .  S
H317       O2210   0.990       .  S
H318       O2213   0.990       .  S
H321       O2213   0.990       .  S
N323        C328   1.351       .  A
N323        C327   1.356       .  A
N323        H355   1.032       .  S
N324        C331   1.342       .  A
N324        C332   1.349       .  A
N325        C330   1.351       .  A
N325        C329   1.348       .  A
N325        H356   1.045       .  S
N326        C333   1.346       .  A
N326        C334   1.345       .  A
C327        C335   1.393       .  A
C327        C343   1.438       .  A
C328        C344   1.419       .  A
C328        C336   1.380       .  A
C329        C337   1.390       .  A
C329        C346   1.418       .  A
C330        C345   1.402       .  A
C330        C338   1.382       .  A
C331        C343   1.424       .  A
C331        C339   1.385       .  A
C332        C346   1.424       .  A
C332        C340   1.390       .  A
C333        C341   1.390       .  A
C333        C344   1.421       .  A
C334        C342   1.383       .  A
C334        C345   1.408       .  A
C335        C336   1.379       .  A
C335        H347   1.076       .  S
C336        H348   1.082       .  S
C337        C338   1.376       .  A
C337        H349   1.082       .  S
C338        H350   1.082       .  S
C339        C340   1.383       .  A
C339        H351   1.078       .  S
C340        H352   1.080       .  S
C341        C342   1.389       .  A
C341        H353   1.082       .  S
C342        H354   1.082       .  S
C343        C377   1.525       .  S
C344        C563   1.503       .  S
C345        C549   1.498       .  S
C346        C636   1.528       .  S
N357        C362   1.351       .  A
N357        C361   1.349       .  A
N357        H389   1.044       .  S
N358        C365   1.348       .  A
N358        C366   1.347       .  A
N359        C364   1.360       .  A
N359        C363   1.356       .  A
N359        H390   1.038       .  S
N360        C367   1.348       .  A
N360        C368   1.345       .  A
C361        C369   1.381       .  A
C361        C377   1.403       .  A
C362        C378   1.415       .  A
C362        C370   1.388       .  A
C363        C371   1.383       .  A
C363        C380   1.423       .  A
C364        C379   1.436       .  A
C364        C372   1.391       .  A
C365        C377   1.395       .  A
C365        C373   1.381       .  A
C366        C380   1.405       .  A
C366        C374   1.386       .  A
C367        C375   1.383       .  A
C367        C378   1.409       .  A
C368        C376   1.392       .  A
C368        C379   1.421       .  A
C369        C370   1.384       .  A
C369        H381   1.081       .  S
C370        H382   1.082       .  S
C371        C372   1.384       .  A
C371        H383   1.082       .  S
C372        H384   1.082       .  S
C373        C374   1.377       .  A
C373        H385   1.081       .  S
C374        H386   1.082       .  S
C375        C376   1.375       .  A
C375        H387   1.081       .  S
C376        H388   1.081       .  S
C378        C664   1.498       .  S
C379        C524   1.507       .  S
C380        C535   1.507       .  S
O391       Zr403   2.442       .  S
O391        C393   1.288       .  A
O392      Zr2365   2.437       .  S
O392        C393   1.289       .  A
C393        C790   1.494       .  S
O394      Zr1374   2.474   1_545  S
O394        C396   1.295       .  A
O395       Zr430   2.397   1_455  S
O395        C396   1.281       .  A
C396        C745   1.496       .  S
O397       Zr406   2.457       .  S
O397        C399   1.291       .  A
O398       Zr429   2.408   1_455  S
O398        C399   1.284       .  A
C399        C762   1.497       .  S
O400      Zr1371   2.438   1_545  S
O400        C402   1.286       .  A
O401      Zr2366   2.414       .  S
O401        C402   1.284       .  A
C402        C773   1.470       .  S
Zr403      O1368   2.435       .  S
Zr403       O404   2.437       .  S
Zr403       O405   2.436       .  S
Zr403       O435   2.361       .  S
Zr403      O2345   2.366       .  S
Zr403      O3314   2.375       .  S
Zr403      O1401   2.363       .  S
O404        H447   0.991       .  S
O405        H446   0.990       .  S
O405        H450   0.990       .  S
Zr406      O1362   2.445       .  S
Zr406       O407   2.435       .  S
Zr406       O408   2.430       .  S
Zr406       O409   2.360       .  S
Zr406       O434   2.363       .  S
Zr406      O1378   2.360       .  S
Zr406      O1404   2.373       .  S
O407        H448   0.990       .  S
O407        H451   0.990       .  S
O408        H441   0.990       .  S
O409       Zr429   2.387   1_455  S
O409      Zr2339   2.366   1_455  S
O410       Zr430   2.402   1_455  S
O410      Zr3307   2.371   1_445  S
O410      Zr1374   2.362   1_545  S
O410        H437   0.966       .  S
O411      Zr1391   2.410   1_545  S
O411        C413   1.283       .  A
O412      Zr2366   2.472       .  S
O412        C413   1.295       .  A
C413        C538   1.508       .  S
O414       Zr426   2.434       .  S
O414        C416   1.287       .  A
O415       Zr429   2.456   1_455  S
O415        C416   1.291       .  A
C416        C552   1.498       .  S
O417      Zr1394   2.423       .  S
O417        C419   1.283       .  A
O418       Zr430   2.466   1_455  S
O418        C419   1.291       .  A
C419        C521   1.503       .  S
O420       Zr423   2.406       .  S
O420        C422   1.280       .  A
O421      Zr2365   2.474       .  S
O421        C422   1.296       .  A
C422        C566   1.483       .  S
Zr423      O1379   2.415       .  S
Zr423       O424   2.432       .  S
Zr423       O425   2.433       .  S
Zr423       O435   2.378       .  S
Zr423      O3335   2.372       .  S
Zr423      O2368   2.372       .  S
Zr423      O1401   2.368       .  S
O424        H444   0.990       .  S
O424        H449   0.990       .  S
O425        H445   0.991       .  S
Zr426      O1385   2.426       .  S
Zr426       O427   2.433       .  S
Zr426       O428   2.440       .  S
Zr426       O432   2.362   1_455  S
Zr426       O434   2.383       .  S
Zr426      O1399   2.374   1_455  S
Zr426      O1404   2.368       .  S
O427        H443   0.990       .  S
O428        H442   0.990       .  S
O428        H452   0.990       .  S
Zr429      O2328   2.429       .  S
Zr429      O2357   2.441       .  S
Zr429       O432   2.386       .  S
Zr429       O434   2.389   1_655  S
Zr429      O2371   2.390       .  S
Zr430      O2337   2.418       .  S
Zr430      O2348   2.447       .  S
Zr430       O431   2.391       .  S
Zr430       O436   2.382   1_655  S
Zr430      O2369   2.389       .  S
O431      Zr3327   2.379   1_545  S
O431      Zr1394   2.368   1_655  S
O431        H439   0.966       .  S
O432      Zr2359   2.374       .  S
O433      Zr1371   2.369   1_545  S
O433      Zr1391   2.370   1_545  S
O433      Zr2366   2.384       .  S
O434        H438   0.965       .  S
O435      Zr2365   2.398       .  S
O435        H440   0.965       .  S
O436      Zr1374   2.375   1_545  S
O436      Zr1394   2.368       .  S
N453        C458   1.348       .  A
N453        C457   1.349       .  A
N453        H485   1.040       .  S
N454        C461   1.355       .  A
N454        C462   1.349       .  A
N455        C460   1.365       .  A
N455        C459   1.359       .  A
N455        H486   1.035       .  S
N456        C463   1.348       .  A
N456        C464   1.347       .  A
C457        C465   1.385       .  A
C457        C473   1.405       .  A
C458        C474   1.407       .  A
C458        C466   1.387       .  A
C459        C467   1.390       .  A
C459        C476   1.438       .  A
C460        C475   1.433       .  A
C460        C468   1.384       .  A
C461        C473   1.411       .  A
C461        C469   1.379       .  A
C462        C476   1.428       .  A
C462        C470   1.393       .  A
C463        C471   1.385       .  A
C463        C474   1.408       .  A
C464        C472   1.388       .  A
C464        C475   1.413       .  A
C465        C466   1.372       .  A
C465        H477   1.082       .  S
C466        H478   1.083       .  S
C467        C468   1.380       .  A
C467        H479   1.082       .  S
C468        H480   1.082       .  S
C469        C470   1.372       .  A
C469        H481   1.082       .  S
C470        H482   1.081       .  S
C471        C472   1.367       .  A
C471        H483   1.082       .  S
C472        H484   1.082       .  S
C473        C580   1.499       .  S
C474        C594   1.483       .  S
C475        C720   1.515       .  S
C476        C734   1.512       .  S
N487        C492   1.347       .  A
N487        C491   1.350       .  A
N487        H519   1.045       .  S
N488        C495   1.353       .  A
N488        C496   1.347       .  A
N489        C494   1.364       .  A
N489        C493   1.363       .  A
N489        H520   1.037       .  S
N490        C497   1.355       .  A
N490        C498   1.354       .  A
C491        C499   1.380       .  A
C491        C507   1.395       .  A
C492        C508   1.407       .  A
C492        C500   1.387       .  A
C493        C501   1.387       .  A
C493        C510   1.436       .  A
C494        C509   1.434       .  A
C494        C502   1.387       .  A
C495        C507   1.402       .  A
C495        C503   1.378       .  A
C496        C510   1.422       .  A
C496        C504   1.394       .  A
C497        C505   1.387       .  A
C497        C508   1.422       .  A
C498        C506   1.387       .  A
C498        C509   1.421       .  A
C499        C500   1.375       .  A
C499        H511   1.082       .  S
C500        H512   1.082       .  S
C501        C502   1.379       .  A
C501        H513   1.082       .  S
C502        H514   1.082       .  S
C503        C504   1.370       .  A
C503        H515   1.082       .  S
C504        H516   1.081       .  S
C505        C506   1.373       .  A
C505        H517   1.082       .  S
C506        H518   1.082       .  S
C507        C622   1.496       .  S
C508        C608   1.530       .  S
C509        C703   1.520       .  S
C510        C692   1.512       .  S
C521        C522   1.419       .  A
C521        C526   1.415       .  A
C522        C523   1.402       .  A
C522        C527   1.450       .  S
C523        C524   1.406       .  A
C523        C530   1.450       .  S
C524        C525   1.420       .  A
C525        C526   1.424       .  A
C525        C528   1.450       .  S
C526        C529   1.446       .  S
C527        N534   1.156       .  T
C528        N533   1.158       .  T
C529        N531   1.157       .  T
C530        N532   1.156       .  T
C535        C536   1.407       .  A
C535        C540   1.421       .  A
C536        C537   1.402       .  A
C536        C541   1.449       .  S
C537        C538   1.420       .  A
C537        C544   1.450       .  S
C538        C539   1.416       .  A
C539        C540   1.422       .  A
C539        C542   1.447       .  S
C540        C543   1.450       .  S
C541        N548   1.156       .  T
C542        N547   1.157       .  T
C543        N545   1.157       .  T
C544        N546   1.157       .  T
C549        C550   1.411       .  A
C549        C554   1.415       .  A
C550        C551   1.418       .  A
C550        C555   1.451       .  S
C551        C552   1.418       .  A
C551        C558   1.446       .  S
C552        C553   1.415       .  A
C553        C554   1.407       .  A
C553        C556   1.452       .  S
C554        C557   1.453       .  S
C555        N562   1.157       .  T
C556        N561   1.157       .  T
C557        N559   1.157       .  T
C558        N560   1.156       .  T
C563        C564   1.416       .  A
C563        C568   1.414       .  A
C564        C565   1.410       .  A
C564        C569   1.452       .  S
C565        C566   1.411       .  A
C565        C572   1.452       .  S
C566        C567   1.415       .  A
C567        C568   1.415       .  A
C567        C570   1.450       .  S
C568        C571   1.450       .  S
C569        N576   1.157       .  T
C570        N575   1.158       .  T
C571        N573   1.157       .  T
C572        N574   1.157       .  T
C577        C578   1.410       .  A
C577        C582   1.421       .  A
C578        C579   1.407       .  A
C578        C583   1.441       .  S
C579        C580   1.411       .  A
C579        C586   1.451       .  S
C580        C581   1.410       .  A
C581        C582   1.416       .  A
C581        C584   1.449       .  S
C582        C585   1.449       .  S
C583        N590   1.154       .  T
C584        N589   1.157       .  T
C585        N587   1.157       .  T
C586        N588   1.157       .  T
C591        C592   1.422       .  A
C591        C596   1.418       .  A
C592        C593   1.401       .  A
C592        C597   1.454       .  S
C593        C594   1.409       .  A
C593        C600   1.453       .  S
C594        C595   1.407       .  A
C595        C596   1.406       .  A
C595        C598   1.451       .  S
C596        C599   1.450       .  S
C597        N604   1.158       .  T
C598        N603   1.157       .  T
C599        N601   1.157       .  T
C600        N602   1.156       .  T
C605        C606   1.410       .  A
C605        C610   1.416       .  A
C606        C607   1.406       .  A
C606        C611   1.449       .  S
C607        C608   1.421       .  A
C607        C614   1.451       .  S
C608        C609   1.419       .  A
C609        C610   1.411       .  A
C609        C612   1.452       .  S
C610        C613   1.451       .  S
C611        N618   1.156   1_554  T
C612        N617   1.158       .  T
C613        N615   1.157       .  T
C614        N616   1.158       .  T
C619        C620   1.410       .  A
C619        C624   1.415       .  A
C620        C621   1.411       .  A
C620        C625   1.450       .  S
C621        C622   1.415       .  A
C621        C628   1.451       .  S
C622        C623   1.411       .  A
C623        C624   1.414       .  A
C623        C626   1.449       .  S
C624        C627   1.451       .  S
C625        N632   1.157       .  T
C626        N631   1.157       .  T
C627        N629   1.157       .  T
C628        N630   1.157       .  T
C633        C634   1.414       .  A
C633        C638   1.413       .  A
C634        C635   1.396       .  A
C634        C639   1.450       .  S
C635        C636   1.412       .  A
C635        C642   1.449       .  S
C636        C637   1.423       .  A
C637        C638   1.423       .  A
C637        C640   1.449       .  S
C638        C641   1.446       .  S
C639        N646   1.157       .  T
C640        N645   1.157       .  T
C641        N643   1.157       .  T
C642        N644   1.158       .  T
C647        C648   1.423       .  A
C647        C652   1.421       .  A
C648        C649   1.413       .  A
C648        C653   1.449       .  S
C649        C650   1.410       .  A
C649        C656   1.445       .  S
C650        C651   1.412       .  A
C650        C678   1.534       .  S
C651        C652   1.414       .  A
C651        C654   1.445       .  S
C652        C655   1.447       .  S
C653        N660   1.157       .  T
C654        N659   1.157       .  T
C655        N657   1.157       .  T
C656        N658   1.157       .  T
C661        C662   1.421       .  A
C661        C666   1.409       .  A
C662        C663   1.422       .  A
C662        C667   1.448       .  S
C663        C664   1.412       .  A
C663        C670   1.448       .  S
C664        C665   1.401       .  A
C665        C666   1.390       .  A
C665        C668   1.438       .  S
C666        C669   1.445       .  S
C667        N674   1.157       .  T
C668        N673   1.151       .  T
C669        N671   1.156       .  T
C670        N672   1.157       .  T
C675        C676   1.412       .  A
C675        C680   1.412       .  A
C676        C677   1.410       .  A
C676        C681   1.449       .  S
C677        C678   1.420       .  A
C677        C684   1.446       .  S
C678        C679   1.420       .  A
C679        C680   1.410       .  A
C679        C682   1.443       .  S
C680        C683   1.450       .  S
C681        N688   1.157       .  T
C682        N687   1.156       .  T
C683        N685   1.157       .  T
C684        N686   1.158       .  T
C689        C690   1.413       .  A
C689        C694   1.419       .  A
C690        C691   1.416       .  A
C690        C695   1.449       .  S
C691        C692   1.417       .  A
C691        C698   1.451       .  S
C692        C693   1.411       .  A
C693        C694   1.415       .  A
C693       C1664   1.451       .  S
C694       C1665   1.447       .  S
C695        N702   1.157       .  T
C696       C1661   1.449       .  S
C696        N701   1.156       .  T
C697       C1662   1.449       .  S
C697        N699   1.157   1_565  T
C698        N700   1.157       .  T
C703        C704   1.413       .  A
C703        C708   1.412       .  A
C704        C705   1.421       .  A
C704        C709   1.451       .  S
C705        C706   1.426       .  A
C705        C712   1.450       .  S
C706        C707   1.423       .  A
C707        C708   1.420       .  A
C707        C710   1.448       .  S
C708        C711   1.451       .  S
C709        N716   1.157       .  T
C710        N715   1.157       .  T
C711        N713   1.157       .  T
C712        N714   1.157       .  T
C717        C718   1.426       .  A
C717        C722   1.422       .  A
C718        C719   1.421       .  A
C718        C723   1.451       .  S
C719        C720   1.413       .  A
C719        C726   1.450       .  S
C720        C721   1.416       .  A
C721        C722   1.415       .  A
C721        C724   1.453       .  S
C722        C725   1.451       .  S
C723        N730   1.157       .  T
C724       N1697   1.157       .  T
C725       N1695   1.157   1_545  T
C726        N728   1.157       .  T
N727       C1693   1.157       .  T
N729       C1692   1.157       .  T
C731        C732   1.407       .  A
C731        C736   1.415       .  A
C732        C733   1.414       .  A
C732        C737   1.450       .  S
C733        C734   1.421       .  A
C733        C740   1.451       .  S
C734        C735   1.414       .  A
C735        C736   1.410       .  A
C735        C738   1.451       .  S
C736        C739   1.451       .  S
C737        N744   1.157       .  T
C738       N1711   1.157   1_545  T
C739       N1709   1.157   1_545  T
C740        N742   1.157       .  T
N741       C1707   1.157       .  T
N743       C1706   1.157       .  T
C745        C746   1.417       .  A
C745        C750   1.423       .  A
C746        C747   1.413       .  A
C746        C751   1.449       .  S
C747        C748   1.409       .  A
C747        C754   1.450       .  S
C748        C749   1.407       .  A
C749        C750   1.405       .  A
C749        C752   1.451       .  S
C750        C753   1.451       .  S
C751        N758   1.157       .  T
C752       N2693   1.156       .  T
C753       N2691   1.157   1_455  T
C754        N756   1.157       .  T
N755       C2689   1.156       .  T
N757       C2688   1.157       .  T
C759        C760   1.411       .  A
C759        C764   1.409       .  A
C760        C761   1.414       .  A
C760        C765   1.449       .  S
C761        C762   1.417       .  A
C761        C768   1.450       .  S
C762        C763   1.419       .  A
C763        C764   1.405       .  A
C763        C766   1.449       .  S
C764        C767   1.449       .  S
C765        N772   1.157       .  T
C766        N771   1.156   1_455  T
C767        N769   1.155       .  T
C768        N770   1.157       .  T
C773        C774   1.414       .  A
C773        C778   1.410       .  A
C774        C775   1.404       .  A
C774        C779   1.451       .  S
C775        C776   1.408       .  A
C775        C782   1.452       .  S
C776        C777   1.410       .  A
C777        C778   1.407       .  A
C777        C780   1.451       .  S
C778        C781   1.450       .  S
C779       N2722   1.157       .  T
C780        N785   1.157       .  T
C781        N783   1.157       .  T
C782       N2720   1.157       .  T
N784       C2718   1.157       .  T
N786       C2715   1.157   1_455  T
C787        C788   1.418       .  A
C787        C792   1.412       .  A
C788        C789   1.413       .  A
C788        C793   1.451       .  S
C789        C790   1.414       .  A
C789        C796   1.450       .  S
C790        C791   1.417       .  A
C791        C792   1.411       .  A
C791        C794   1.451       .  S
C792        C795   1.452       .  S
C793        N800   1.157       .  T
C794       N2735   1.157       .  T
C795        N797   1.157       .  T
C796        N798   1.157       .  T
N799       C2730   1.157   1_455  T
C801        C802   1.419       .  A
C801        C806   1.423       .  A
C802        C803   1.415       .  A
C802        C807   1.450       .  S
C803        C804   1.411       .  A
C803        C810   1.451       .  S
C804        C805   1.408       .  A
C805        C806   1.408       .  A
C805        C808   1.452       .  S
C806        C809   1.450       .  S
C807        N814   1.157       .  T
C808        N813   1.157       .  T
C809        N811   1.157       .  T
C810        N812   1.157       .  T
C815        C816   1.418       .  A
C815        C820   1.419       .  A
C816        C817   1.410       .  A
C816        C821   1.451       .  S
C817        C818   1.408       .  A
C817        C824   1.451       .  S
C818        C819   1.407       .  A
C819        C820   1.402       .  A
C819        C822   1.452       .  S
C820        C823   1.450       .  S
C821        N828   1.157       .  T
C822        N827   1.157       .  T
C823        N825   1.157       .  T
C824        N826   1.157       .  T
C829        C830   1.408       .  A
C829        C834   1.411       .  A
C830        C831   1.410       .  A
C830        C835   1.451       .  S
C831        C832   1.414       .  A
C831        C838   1.449       .  S
C832        C833   1.411       .  A
C833        C834   1.406       .  A
C833        C836   1.451       .  S
C834        C837   1.452       .  S
C835        N842   1.157       .  T
C836        N841   1.157       .  T
C837        N839   1.157       .  T
C838        N840   1.157       .  T
C843        C844   1.409       .  A
C843        C848   1.411       .  A
C844        C845   1.408       .  A
C844        C849   1.451       .  S
C845        C846   1.413       .  A
C845        C852   1.450       .  S
C846        C847   1.411       .  A
C847        C848   1.405       .  A
C847        C850   1.451       .  S
C848        C851   1.452       .  S
C849        N856   1.157       .  T
C850        N855   1.157       .  T
C851        N853   1.157       .  T
C852        N854   1.157       .  T
C857        C858   1.439       .  A
C857        C862   1.413       .  A
C858        C859   1.426       .  A
C858        C863   1.452       .  S
C859        C860   1.412       .  A
C859        C866   1.453       .  S
C860        C861   1.425       .  A
C861        C862   1.421       .  A
C861        C864   1.450       .  S
C862        C865   1.447       .  S
C863        N870   1.158       .  T
C864        N869   1.157       .  T
C865        N867   1.158       .  T
C866        N868   1.158       .  T
C871        C872   1.421       .  A
C871        C876   1.425       .  A
C872        C873   1.423       .  A
C872        C877   1.449       .  S
C873        C874   1.419       .  A
C873        C880   1.452       .  S
C874        C875   1.409       .  A
C875        C876   1.418       .  A
C875        C878   1.450       .  S
C876        C879   1.450       .  S
C877        N884   1.157       .  T
C878        N883   1.157       .  T
C879        N881   1.157       .  T
C880        N882   1.157       .  T
C885        C886   1.410       .  A
C885        C890   1.405       .  A
C886        C887   1.417       .  A
C886        C891   1.450       .  S
C887        C888   1.421       .  A
C887        C894   1.450       .  S
C888        C889   1.424       .  A
C889        C890   1.405       .  A
C889        C892   1.450       .  S
C890        C893   1.452       .  S
C891        N898   1.157       .  T
C892        N897   1.157       .  T
C893        N895   1.156       .  T
C894        N896   1.157       .  T
C899        C900   1.421       .  A
C899        C904   1.419       .  A
C900        C901   1.408       .  A
C900        C905   1.450       .  S
C901        C902   1.408       .  A
C901        C908   1.451       .  S
C902        C903   1.410       .  A
C903        C904   1.412       .  A
C903        C906   1.451       .  S
C904        C907   1.451       .  S
C905        N912   1.157       .  T
C906        N911   1.157       .  T
C907        N909   1.157       .  T
C908        N910   1.156       .  T
C913        C914   1.429       .  A
C913        C918   1.415       .  A
C914        C915   1.420       .  A
C914        C919   1.451       .  S
C915        C916   1.410       .  A
C915        C922   1.451       .  S
C916        C917   1.415       .  A
C917        C918   1.419       .  A
C917        C920   1.450       .  S
C918        C921   1.442       .  S
C919        N926   1.157       .  T
C920        N925   1.157       .  T
C921        N923   1.155       .  T
C922        N924   1.157       .  T
C927        C928   1.422       .  A
C927        C932   1.408       .  A
C928        C929   1.422       .  A
C928        C933   1.450       .  S
C929        C930   1.413       .  A
C929        C936   1.449       .  S
C930        C931   1.421       .  A
C931        C932   1.416       .  A
C931       C2870   1.447       .  S
C932        C935   1.445       .  S
C933        N940   1.157       .  T
C934       C2867   1.448   1_455  S
C934        N939   1.157       .  T
C935       N2873   1.155       .  T
C936        N938   1.157       .  T
N937       C2871   1.156   1_455  T
C941        C942   1.413       .  A
C941        C946   1.409       .  A
C942        C943   1.408       .  A
C942        C947   1.451       .  S
C943        C944   1.409       .  A
C943        C950   1.451       .  S
C944        C945   1.415       .  A
C945        C946   1.410       .  A
C945        C948   1.451       .  S
C946        C949   1.452       .  S
C947        N954   1.157       .  T
C948        N953   1.157       .  T
C949        N951   1.158       .  T
C950        N952   1.157       .  T
C955        C956   1.409       .  A
C955        C960   1.410       .  A
C956        C957   1.404       .  A
C956        C961   1.451       .  S
C957        C958   1.412       .  A
C957        C964   1.452       .  S
C958        C959   1.410       .  A
C959        C960   1.407       .  A
C959        C962   1.451       .  S
C960        C963   1.450       .  S
C961        N968   1.157       .  T
C962        N967   1.157       .  T
C963        N965   1.157       .  T
C964        N966   1.157       .  T
N969        C974   1.352       .  A
N969        C973   1.352       .  A
N969       H1001   1.041       .  S
N970        C977   1.360       .  A
N970        C978   1.358       .  A
N971        C976   1.357       .  A
N971        C975   1.355       .  A
N971       H1002   1.038       .  S
N972        C979   1.345       .  A
N972        C980   1.346       .  A
C973        C981   1.388       .  A
C973        C989   1.415       .  A
C974        C990   1.410       .  A
C974        C982   1.385       .  A
C975        C983   1.393       .  A
C975        C992   1.426       .  A
C976        C991   1.413       .  A
C976        C984   1.382       .  A
C977        C989   1.434       .  A
C977        C985   1.387       .  A
C978        C992   1.430       .  A
C978        C986   1.386       .  A
C979        C987   1.387       .  A
C979        C990   1.403       .  A
C980        C988   1.386       .  A
C980        C991   1.403       .  A
C981        C982   1.375       .  A
C981        H993   1.082       .  S
C982        H994   1.082       .  S
C983        C984   1.370       .  A
C983        H995   1.080       .  S
C984        H996   1.082       .  S
C985        C986   1.384       .  A
C985        H997   1.082       .  S
C986        H998   1.082       .  S
C987        C988   1.371       .  A
C987        H999   1.083       .  S
C988       H1000   1.083       .  S
C989       C1895   1.525       .  S
C990       C1923   1.484       .  S
C991       C1912   1.490       .  S
C992       C1884   1.516       .  S
N1003      C1008   1.352       .  A
N1003      C1007   1.350       .  A
N1003      H1035   1.042       .  S
N1004      C1011   1.362       .  A
N1004      C1012   1.360       .  A
N1005      C1010   1.356       .  A
N1005      C1009   1.351       .  A
N1005      H1036   1.041       .  S
N1006      C1013   1.346       .  A
N1006      C1014   1.347       .  A
C1007      C1015   1.389       .  A
C1007      C1023   1.414       .  A
C1008      C1024   1.408       .  A
C1008      C1016   1.385       .  A
C1009      C1017   1.389       .  A
C1009      C1026   1.415       .  A
C1010      C1025   1.414       .  A
C1010      C1018   1.385       .  A
C1011      C1023   1.438       .  A
C1011      C1019   1.387       .  A
C1012      C1026   1.433       .  A
C1012      C1020   1.384       .  A
C1013      C1021   1.386       .  A
C1013      C1024   1.406       .  A
C1014      C1022   1.386       .  A
C1014      C1025   1.408       .  A
C1015      C1016   1.375       .  A
C1015      H1027   1.082       .  S
C1016      H1028   1.083       .  S
C1017      C1018   1.373       .  A
C1017      H1029   1.082       .  S
C1018      H1030   1.082       .  S
C1019      C1020   1.387       .  A
C1019      H1031   1.082       .  S
C1020      H1032   1.081       .  S
C1021      C1022   1.375       .  A
C1021      H1033   1.082       .  S
C1022      H1034   1.082       .  S
C1023      C1828   1.529       .  S
C1024      C1853   1.488       .  S
C1025      C1870   1.499       .  S
C1026      C1842   1.517       .  S
O1037     Zr1049   2.464   1_565  S
O1037      C1039   1.292       .  A
O1038     Zr1075   2.425       .  S
O1038      C1039   1.287       .  A
C1039      C1867   1.508       .  S
O1040      C1042   1.283       .  A
O1041     Zr1076   2.420       .  S
O1041      C1042   1.285       .  A
C1042      C1909   1.470       .  S
O1043     Zr1052   2.417       .  S
O1043      C1045   1.283       .  A
O1044     Zr1075   2.422       .  S
O1044      C1045   1.285       .  A
C1045      C1926   1.471       .  S
O1046      C1048   1.292       .  A
O1047     Zr1076   2.401       .  S
O1047      C1048   1.281       .  A
C1048      C1856   1.493       .  S
Zr1049     O1050   2.435       .  S
Zr1049     O1055   2.378   1_545  S
Zr1049     O1081   2.378   1_545  S
O1050      H1093   0.990   1_545  S
Zr1052     O1053   2.436       .  S
Zr1052     O1055   2.372       .  S
Zr1052     O1080   2.377       .  S
O1053      H1097   0.990   1_565  S
O1055     Zr1075   2.381       .  S
O1056     Zr1076   2.382       .  S
O1056      H1083   0.965       .  S
O1057      C1059   1.284       .  A
O1058     Zr1076   2.420       .  S
O1058      C1059   1.285       .  A
C1059      C1797   1.472       .  S
O1060     Zr1072   2.460       .  S
O1060      C1062   1.292       .  A
O1061     Zr1075   2.424       .  S
O1061      C1062   1.286       .  A
C1062      C1783   1.503       .  S
O1063      C1065   1.293       .  A
O1064     Zr1076   2.410       .  S
O1064      C1065   1.283       .  A
C1065      C1769   1.494       .  S
O1066     Zr1069   2.418   1_565  S
O1066      C1068   1.282       .  A
O1067     Zr1075   2.430       .  S
O1067      C1068   1.287       .  A
C1068      C1811   1.472       .  S
Zr1069     O1070   2.437       .  S
Zr1069     O1071   2.434       .  S
Zr1069     O1078   2.369   1_545  S
Zr1069     O1081   2.374   1_545  S
Zr1072     O1074   2.433       .  S
Zr1072     O1078   2.374       .  S
Zr1072     O1080   2.371       .  S
Zr1075     O1078   2.375       .  S
Zr1075     O1080   2.388       .  S
Zr1075     O1081   2.388       .  S
Zr1076     O1077   2.377       .  S
Zr1076     O1079   2.384       .  S
Zr1076     O1082   2.382       .  S
O1077      H1085   0.964       .  S
O1080      H1084   0.966       .  S
O1081      H1086   0.966       .  S
N1099      C1104   1.352       .  A
N1099      C1103   1.354       .  A
N1099      H1131   1.040       .  S
N1100      C1107   1.351       .  A
N1100      C1108   1.349       .  A
N1101      C1106   1.352       .  A
N1101      C1105   1.349       .  A
N1101      H1132   1.040       .  S
N1102      C1109   1.348       .  A
N1102      C1110   1.350       .  A
C1103      C1111   1.385       .  A
C1103      C1119   1.414       .  A
C1104      C1120   1.416       .  A
C1104      C1112   1.388       .  A
C1105      C1113   1.388       .  A
C1105      C1122   1.411       .  A
C1106      C1121   1.411       .  A
C1106      C1114   1.386       .  A
C1107      C1119   1.413       .  A
C1107      C1115   1.386       .  A
C1108      C1122   1.411       .  A
C1108      C1116   1.386       .  A
C1109      C1117   1.387       .  A
C1109      C1120   1.411       .  A
C1110      C1118   1.385       .  A
C1110      C1121   1.410       .  A
C1111      C1112   1.377       .  A
C1111      H1123   1.082       .  S
C1112      H1124   1.082       .  S
C1113      C1114   1.376       .  A
C1113      H1125   1.082       .  S
C1114      H1126   1.083       .  S
C1115      C1116   1.374       .  A
C1115      H1127   1.082       .  S
C1116      H1128   1.082       .  S
C1117      C1118   1.375       .  A
C1117      H1129   1.082       .  S
C1118      H1130   1.083       .  S
C1119      C1755   1.502       .  S
C1120      C1786   1.493       .  S
C1121      C1772   1.493       .  S
C1122      C1744   1.487       .  S
N1133      C1138   1.350       .  A
N1133      C1137   1.352       .  A
N1133      H1165   1.040       .  S
N1134      C1141   1.350       .  A
N1134      C1142   1.347       .  A
N1135      C1140   1.351       .  A
N1135      C1139   1.351       .  A
N1135      H1166   1.040       .  S
N1136      C1143   1.347       .  A
N1136      C1144   1.349       .  A
C1137      C1145   1.388       .  A
C1137      C1153   1.416       .  A
C1138      C1154   1.409       .  A
C1138      C1146   1.385       .  A
C1139      C1147   1.388       .  A
C1139      C1156   1.413       .  A
C1140      C1155   1.411       .  A
C1140      C1148   1.386       .  A
C1141      C1153   1.413       .  A
C1141      C1149   1.386       .  A
C1142      C1156   1.409       .  A
C1142      C1150   1.386       .  A
C1143      C1151   1.388       .  A
C1143      C1154   1.407       .  A
C1144      C1152   1.385       .  A
C1144      C1155   1.405       .  A
C1145      C1146   1.377       .  A
C1145      H1157   1.082       .  S
C1146      H1158   1.082       .  S
C1147      C1148   1.377       .  A
C1147      H1159   1.082       .  S
C1148      H1160   1.083       .  S
C1149      C1150   1.376       .  A
C1149      H1161   1.082       .  S
C1150      H1162   1.083       .  S
C1151      C1152   1.371       .  A
C1151      H1163   1.082       .  S
C1152      H1164   1.082       .  S
C1153      C1727   1.502       .  S
C1154      C1814   1.484       .  S
C1155      C1800   1.489       .  S
C1156      C1716   1.489       .  S
O1167     Zr1179   2.422       .  S
O1167      C1169   1.284       .  A
O1168     Zr3141   2.508       .  S
O1168      C1169   1.305       .  A
C1169      C1881   1.525       .  S
O1170     Zr1182   2.414       .  S
O1170      C1172   1.282       .  A
O1171     Zr2174   2.489   1_565  S
O1171      C1172   1.300       .  A
C1172      C1657   1.488       .  S
O1173     Zr1182   2.430       .  S
O1173      C1175   1.286       .  A
O1174     Zr2173   2.505   1_565  S
O1174      C1175   1.304       .  A
C1175      C1898   1.503       .  S
O1176     Zr1179   2.449       .  S
O1176      C1178   1.290       .  A
O1177     Zr3142   2.448       .  S
O1177      C1178   1.293       .  A
C1178      C1685   1.511       .  S
Zr1179     O1180   2.432       .  S
Zr1179     O1181   2.435       .  S
Zr1179     O1185   2.395       .  S
Zr1179     O1186   2.342       .  S
Zr1179     O3145   2.378       .  S
Zr1179     O3147   2.355       .  S
O1180      H1223   0.989       .  S
O1181      H1222   0.990       .  S
O1181      H1226   0.990       .  S
Zr1182     O1183   2.434       .  S
Zr1182     O1184   2.436       .  S
Zr1182     O3146   2.344       .  S
Zr1182     O3148   2.395       .  S
O1183      H1224   0.990       .  S
O1183      H1227   0.990       .  S
O1184      H1217   0.990       .  S
O1185     Zr3141   2.413       .  S
O1186     Zr3142   2.395       .  S
O1186      H1213   0.963       .  S
O1187     Zr1199   2.410       .  S
O1187      C1189   1.282       .  A
O1188     Zr1206   2.489       .  S
O1188      C1189   1.300       .  A
C1189      C1699   1.486       .  S
O1190     Zr1202   2.432       .  S
O1190      C1192   1.287       .  A
O1191      C1192   1.303       .  A
C1192      C1839   1.524       .  S
O1193     Zr1202   2.465       .  S
O1193      C1195   1.294       .  A
O1194      C1195   1.294       .  A
C1195      C1674   1.516       .  S
O1196     Zr1199   2.418       .  S
O1196      C1198   1.281       .  A
O1197     Zr1205   2.508       .  S
O1197      C1198   1.305       .  A
C1198      C1825   1.532       .  S
Zr1199     O1200   2.435       .  S
Zr1199     O1201   2.438       .  S
Zr1199     O1207   2.355       .  S
Zr1199     O1208   2.382       .  S
Zr1199     O1211   2.347       .  S
Zr1199     O1209   2.379       .  S
O1200      H1220   0.989       .  S
O1200      H1225   0.990       .  S
O1201      H1221   0.990       .  S
Zr1202     O1203   2.434       .  S
Zr1202     O1204   2.431       .  S
Zr1202     O1212   2.385       .  S
Zr1202     O1210   2.346       .  S
O1203      H1219   0.990       .  S
O1204      H1218   0.989       .  S
O1204      H1228   0.990       .  S
Zr1205     O3104   2.522   1_455  S
Zr1205     O2142   2.515   1_455  S
Zr1205     O3121   2.408   1_455  S
Zr1205     O1208   2.412       .  S
Zr1205     O1211   2.394       .  S
Zr1206     O2139   2.498   1_455  S
Zr1206     O3113   2.445   1_455  S
Zr1206     O3122   2.385   1_455  S
Zr1206     O1207   2.385       .  S
Zr1206     O1209   2.397       .  S
O1207      H1215   0.962       .  S
O1209     Zr3115   2.376   1_455  S
O1210     Zr3118   2.351   1_455  S
O1210      H1214   0.961       .  S
O1211     Zr3115   2.359   1_455  S
O1211      H1216   0.964       .  S
O1212     Zr3118   2.385   1_455  S
O1229     Zr3177   2.494       .  S
O1229      C1231   1.296       .  A
O1230     Zr1267   2.383       .  S
O1230      C1231   1.279       .  A
C1231      C1615   1.501       .  S
O1232     Zr1244   2.456       .  S
O1232      C1234   1.290       .  A
O1233     Zr1268   2.435       .  S
O1233      C1234   1.289       .  A
C1234      C1629   1.493       .  S
O1235     Zr3180   2.465       .  S
O1235      C1237   1.292       .  A
O1236     Zr1267   2.407       .  S
O1236      C1237   1.285       .  A
C1237      C1643   1.490       .  S
O1238     Zr1241   2.410       .  S
O1238      C1240   1.281       .  A
O1239     Zr1268   2.479       .  S
O1239      C1240   1.296       .  A
C1240      C1601   1.497       .  S
Zr1241     O3165   2.461   1_455  S
Zr1241     O1242   2.437       .  S
Zr1241     O1243   2.437       .  S
Zr1241     O3183   2.361   1_455  S
Zr1241     O1248   2.394       .  S
Zr1241     O1271   2.375       .  S
Zr1241     O3209   2.351   1_455  S
O1242      H3221   0.990       .  S
O1243      H3220   0.990   1_455  S
O1243      H1288   0.990       .  S
Zr1244     O3171   2.459   1_455  S
Zr1244     O3181   2.437       .  S
Zr1244     O1246   2.435       .  S
Zr1244     O1248   2.375       .  S
Zr1244     O3183   2.369   1_455  S
Zr1244     O3208   2.367   1_455  S
Zr1244     O1274   2.368       .  S
O1245     Zr3180   2.438       .  S
O1245      H3222   0.990       .  S
O1245      H3225   0.990       .  S
O1246      H3215   0.990       .  S
O1247     Zr3177   2.358       .  S
O1247     Zr3180   2.373       .  S
O1247     Zr1267   2.374       .  S
O1248     Zr1268   2.394       .  S
O1248      H1275   0.965       .  S
O1249     Zr1261   2.429       .  S
O1249      C1251   1.286       .  A
O1250     Zr1268   2.441   1_554  S
O1250      C1251   1.291       .  A
C1251      C1573   1.495       .  S
O1252     Zr3200   2.436       .  S
O1252      C1254   1.287       .  A
O1253     Zr1267   2.403   1_554  S
O1253      C1254   1.282       .  A
C1254      C1559   1.493       .  S
O1255     Zr1264   2.417       .  S
O1255      C1257   1.284       .  A
O1256     Zr1268   2.458   1_554  S
O1256      C1257   1.294       .  A
C1257      C1545   1.490       .  S
O1258     Zr3197   2.438       .  S
O1258      C1260   1.286       .  A
O1259     Zr1267   2.431   1_554  S
O1259      C1260   1.287       .  A
C1260      C1587   1.477       .  S
Zr1261     O3194   2.428   1_455  S
Zr1261     O1262   2.431       .  S
Zr1261     O1263   2.434       .  S
Zr1261     O1269   2.364       .  S
Zr1261     O3206   2.366   1_455  S
Zr1261     O3209   2.376   1_454  S
Zr1261     O1271   2.383   1_554  S
O1262      H1282   0.989       .  S
O1262      H1287   0.990       .  S
O1263      H1283   0.990       .  S
Zr1264     O3188   2.454   1_455  S
Zr1264     O1265   2.435       .  S
Zr1264     O1266   2.430       .  S
Zr1264     O3206   2.363   1_455  S
Zr1264     O1269   2.373       .  S
Zr1264     O1274   2.376   1_554  S
Zr1264     O3208   2.359   1_454  S
O1265      H3217   0.990   1_455  S
O1266      H1280   0.990       .  S
O1266      H1290   0.989   1_454  S
Zr1267     O1270   2.368   1_556  S
Zr1267     O1272   2.379       .  S
Zr1267     O1273   2.376       .  S
Zr1268     O1269   2.390   1_556  S
Zr1268     O1271   2.394       .  S
Zr1268     O1274   2.389       .  S
O1269      H1277   0.965       .  S
O1270     Zr3197   2.377       .  S
O1270     Zr3200   2.377       .  S
O1272     Zr3180   2.365       .  S
O1272     Zr3200   2.364   1_556  S
O1272      H1276   0.966       .  S
O1273     Zr3177   2.344       .  S
O1273     Zr3197   2.369   1_556  S
O1273      H1278   0.965       .  S
H1279      O3182   0.990       .  S
H1281      O3201   0.990       .  S
H1284      O3179   0.990       .  S
H1285      O3178   0.990       .  S
H1286      O3181   0.990   1_655  S
H1289      O3181   0.990       .  S
N1291      C1296   1.348       .  A
N1291      C1295   1.355       .  A
N1291      H1323   1.034       .  S
N1292      C1299   1.344       .  A
N1292      C1300   1.351       .  A
N1293      C1298   1.352       .  A
N1293      C1297   1.348       .  A
N1293      H1324   1.045       .  S
N1294      C1301   1.346       .  A
N1294      C1302   1.346       .  A
C1295      C1303   1.396       .  A
C1295      C1311   1.437       .  A
C1296      C1312   1.414       .  A
C1296      C1304   1.380       .  A
C1297      C1305   1.390       .  A
C1297      C1314   1.417       .  A
C1298      C1313   1.405       .  A
C1298      C1306   1.382       .  A
C1299      C1311   1.424       .  A
C1299      C1307   1.383       .  A
C1300      C1314   1.424       .  A
C1300      C1308   1.389       .  A
C1301      C1309   1.391       .  A
C1301      C1312   1.420       .  A
C1302      C1310   1.382       .  A
C1302      C1313   1.406       .  A
C1303      C1304   1.379       .  A
C1303      H1315   1.080       .  S
C1304      H1316   1.082       .  S
C1305      C1306   1.377       .  A
C1305      H1317   1.082       .  S
C1306      H1318   1.082       .  S
C1307      C1308   1.379       .  A
C1307      H1319   1.077       .  S
C1308      H1320   1.079       .  S
C1309      C1310   1.387       .  A
C1309      H1321   1.082       .  S
C1310      H1322   1.082       .  S
C1311      C1345   1.525       .  S
C1312      C1531   1.498       .  S
C1313      C1517   1.501       .  S
C1314      C1604   1.530       .  S
N1325      C1330   1.349       .  A
N1325      C1329   1.347       .  A
N1325      H1357   1.044       .  S
N1326      C1333   1.347       .  A
N1326      C1334   1.345       .  A
N1327      C1332   1.357       .  A
N1327      C1331   1.357       .  A
N1327      H1358   1.038       .  S
N1328      C1335   1.351       .  A
N1328      C1336   1.348       .  A
C1329      C1337   1.382       .  A
C1329      C1345   1.400       .  A
C1330      C1346   1.412       .  A
C1330      C1338   1.389       .  A
C1331      C1339   1.383       .  A
C1331      C1348   1.420       .  A
C1332      C1347   1.432       .  A
C1332      C1340   1.391       .  A
C1333      C1345   1.394       .  A
C1333      C1341   1.382       .  A
C1334      C1348   1.402       .  A
C1334      C1342   1.386       .  A
C1335      C1343   1.382       .  A
C1335      C1346   1.411       .  A
C1336      C1344   1.391       .  A
C1336      C1347   1.423       .  A
C1337      C1338   1.385       .  A
C1337      H1349   1.082       .  S
C1338      H1350   1.082       .  S
C1339      C1340   1.383       .  A
C1339      H1351   1.082       .  S
C1340      H1352   1.082       .  S
C1341      C1342   1.378       .  A
C1341      H1353   1.082       .  S
C1342      H1354   1.082       .  S
C1343      C1344   1.378       .  A
C1343      H1355   1.082       .  S
C1344      H1356   1.081       .  S
C1346      C1632   1.498       .  S
C1347      C1492   1.505       .  S
C1348      C1503   1.502       .  S
O1359     Zr1371   2.449       .  S
O1359      C1361   1.289       .  A
O1360     Zr3333   2.430       .  S
O1360      C1361   1.287       .  A
C1361      C1758   1.490       .  S
O1362      C1364   1.289       .  A
O1363     Zr1398   2.434   1_455  S
O1363      C1364   1.289       .  A
C1364      C1713   1.498       .  S
O1365     Zr1374   2.471       .  S
O1365      C1367   1.294       .  A
O1366     Zr1397   2.414   1_455  S
O1366      C1367   1.285       .  A
C1367      C1730   1.510       .  S
O1368      C1370   1.285       .  A
O1369     Zr3334   2.412       .  S
O1369      C1370   1.284       .  A
C1370      C1741   1.470       .  S
Zr1371     O1372   2.434       .  S
Zr1371     O1373   2.435       .  S
Zr1371     O3313   2.360       .  S
Zr1371     O2346   2.371   1_565  S
Zr1371     O1403   2.364       .  S
O1372      H1415   0.990   1_565  S
O1373      H1414   0.990       .  S
O1373      H1418   0.990   1_565  S
Zr1374     O1375   2.435       .  S
Zr1374     O1376   2.428       .  S
Zr1374     O1377   2.356       .  S
Zr1374     O1402   2.366       .  S
O1375      H1416   0.989   1_565  S
O1375      H1419   0.990       .  S
O1376      H1409   0.990   1_565  S
O1377     Zr3307   2.364   1_455  S
O1377     Zr1397   2.394   1_455  S
O1378     Zr2339   2.370   1_455  S
O1378     Zr1398   2.398   1_455  S
O1378      H1405   0.966       .  S
O1379      C1381   1.284       .  A
O1380     Zr3334   2.446       .  S
O1380      C1381   1.291       .  A
C1381      C1506   1.498       .  S
O1382     Zr1394   2.417   1_565  S
O1382      C1384   1.283       .  A
O1383     Zr1397   2.499   1_455  S
O1383      C1384   1.300       .  A
C1384      C1520   1.510       .  S
O1385      C1387   1.285       .  A
O1386     Zr1398   2.458   1_455  S
O1386      C1387   1.291       .  A
C1387      C1489   1.502       .  S
O1388     Zr1391   2.402       .  S
O1388      C1390   1.279       .  A
O1389     Zr3333   2.449       .  S
O1389      C1390   1.291       .  A
C1390      C1534   1.471       .  S
Zr1391     O1392   2.435   1_565  S
Zr1391     O1393   2.430       .  S
Zr1391     O2367   2.370   1_565  S
Zr1391     O3336   2.369       .  S
Zr1391     O1403   2.378       .  S
O1392      H1412   0.990       .  S
O1392      H1417   0.990   1_545  S
O1393      H1413   0.990       .  S
Zr1394     O1395   2.436       .  S
Zr1394     O1396   2.441       .  S
Zr1394     O1400   2.369   1_445  S
Zr1394     O1402   2.388   1_545  S
O1395      H1411   0.990   1_545  S
O1396      H1410   0.990       .  S
O1396      H1420   0.990       .  S
Zr1397     O3296   2.441       .  S
Zr1397     O3325   2.472       .  S
Zr1397     O1400   2.393       .  S
Zr1397     O1402   2.390   1_655  S
Zr1397     O3339   2.403       .  S
Zr1398     O3305   2.414       .  S
Zr1398     O3316   2.484       .  S
Zr1398     O1399   2.396       .  S
Zr1398     O3337   2.387       .  S
Zr1398     O1404   2.389   1_655  S
O1399     Zr2359   2.375       .  S
O1399      H1407   0.966       .  S
O1400     Zr3327   2.385       .  S
O1401     Zr3334   2.392       .  S
O1402      H1406   0.964       .  S
O1403     Zr3333   2.386       .  S
O1403      H1408   0.966       .  S
N1421      C1426   1.348       .  A
N1421      C1425   1.347       .  A
N1421      H1453   1.033       .  S
N1422      C1429   1.354       .  A
N1422      C1430   1.350       .  A
N1423      C1428   1.360       .  A
N1423      C1427   1.355       .  A
N1423      H1454   1.032       .  S
N1424      C1431   1.349       .  A
N1424      C1432   1.347       .  A
C1425      C1433   1.386       .  A
C1425      C1441   1.408       .  A
C1426      C1442   1.409       .  A
C1426      C1434   1.387       .  A
C1427      C1435   1.391       .  A
C1427      C1444   1.434       .  A
C1428      C1443   1.426       .  A
C1428      C1436   1.384       .  A
C1429      C1441   1.411       .  A
C1429      C1437   1.381       .  A
C1430      C1444   1.424       .  A
C1430      C1438   1.393       .  A
C1431      C1439   1.387       .  A
C1431      C1442   1.410       .  A
C1432      C1440   1.386       .  A
C1432      C1443   1.408       .  A
C1433      C1434   1.374       .  A
C1433      H1445   1.082       .  S
C1434      H1446   1.082       .  S
C1435      C1436   1.381       .  A
C1435      H1447   1.081       .  S
C1436      H1448   1.082       .  S
C1437      C1438   1.369       .  A
C1437      H1449   1.082       .  S
C1438      H1450   1.081       .  S
C1439      C1440   1.369       .  A
C1439      H1451   1.082       .  S
C1440      H1452   1.083       .  S
C1441      C1548   1.490       .  S
C1442      C1562   1.483       .  S
C1443      C1688   1.505       .  S
C1444      C1702   1.502       .  S
N1455      C1460   1.345       .  A
N1455      C1459   1.347       .  A
N1455      H1487   1.045       .  S
N1456      C1463   1.350       .  A
N1456      C1464   1.345       .  A
N1457      C1462   1.361       .  A
N1457      C1461   1.361       .  A
N1457      H1488   1.038       .  S
N1458      C1465   1.354       .  A
N1458      C1466   1.352       .  A
C1459      C1467   1.381       .  A
C1459      C1475   1.392       .  A
C1460      C1476   1.402       .  A
C1460      C1468   1.387       .  A
C1461      C1469   1.388       .  A
C1461      C1478   1.433       .  A
C1462      C1477   1.430       .  A
C1462      C1470   1.387       .  A
C1463      C1475   1.397       .  A
C1463      C1471   1.378       .  A
C1464      C1478   1.417       .  A
C1464      C1472   1.393       .  A
C1465      C1473   1.386       .  A
C1465      C1476   1.420       .  A
C1466      C1474   1.388       .  A
C1466      C1477   1.421       .  A
C1467      C1468   1.375       .  A
C1467      H1479   1.082       .  S
C1468      H1480   1.083       .  S
C1469      C1470   1.382       .  A
C1469      H1481   1.082       .  S
C1470      H1482   1.082       .  S
C1471      C1472   1.369       .  A
C1471      H1483   1.082       .  S
C1472      H1484   1.082       .  S
C1473      C1474   1.371       .  A
C1473      H1485   1.082       .  S
C1474      H1486   1.082       .  S
C1475      C1590   1.488       .  S
C1476      C1576   1.527       .  S
C1477      C1671   1.514       .  S
C1478      C1660   1.506       .  S
C1489      C1490   1.418       .  A
C1489      C1494   1.416       .  A
C1490      C1491   1.401       .  A
C1490      C1495   1.453       .  S
C1491      C1492   1.408       .  A
C1491      C1498   1.448       .  S
C1492      C1493   1.417       .  A
C1493      C1494   1.423       .  A
C1493      C1496   1.449       .  S
C1494      C1497   1.445       .  S
C1495      N1502   1.157       .  T
C1496      N1501   1.157       .  T
C1497      N1499   1.157       .  T
C1498      N1500   1.156       .  T
C1503      C1504   1.409       .  A
C1503      C1508   1.419       .  A
C1504      C1505   1.401       .  A
C1504      C1509   1.445       .  S
C1505      C1506   1.417       .  A
C1505      C1512   1.452       .  S
C1506      C1507   1.414       .  A
C1507      C1508   1.417       .  A
C1507      C1510   1.448       .  S
C1508      C1511   1.448       .  S
C1509      N1516   1.155       .  T
C1510      N1515   1.157       .  T
C1511      N1513   1.157       .  T
C1512      N1514   1.157       .  T
C1517      C1518   1.411       .  A
C1517      C1522   1.411       .  A
C1518      C1519   1.422       .  A
C1518      C1523   1.451       .  S
C1519      C1520   1.420       .  A
C1519      C1526   1.444       .  S
C1520      C1521   1.423       .  A
C1521      C1522   1.410       .  A
C1521      C1524   1.452       .  S
C1522      C1525   1.454       .  S
C1523      N1530   1.158       .  T
C1524      N1529   1.157       .  T
C1525      N1527   1.157       .  T
C1526      N1528   1.156       .  T
C1531      C1532   1.418       .  A
C1531      C1536   1.412       .  A
C1532      C1533   1.408       .  A
C1532      C1537   1.449       .  S
C1533      C1534   1.407       .  A
C1533      C1540   1.452       .  S
C1534      C1535   1.412       .  A
C1535      C1536   1.408       .  A
C1535      C1538   1.451       .  S
C1536      C1539   1.450       .  S
C1537      N1544   1.156       .  T
C1538      N1543   1.158       .  T
C1539      N1541   1.157       .  T
C1540      N1542   1.157       .  T
C1545      C1546   1.410       .  A
C1545      C1550   1.421       .  A
C1546      C1547   1.401       .  A
C1546      C1551   1.439       .  S
C1547      C1548   1.407       .  A
C1547      C1554   1.454       .  S
C1548      C1549   1.408       .  A
C1549      C1550   1.415       .  A
C1549      C1552   1.448       .  S
C1550      C1553   1.450       .  S
C1551      N1558   1.153       .  T
C1552      N1557   1.157       .  T
C1553      N1555   1.157       .  T
C1554      N1556   1.157       .  T
C1559      C1560   1.422       .  A
C1559      C1564   1.422       .  A
C1560      C1561   1.403       .  A
C1560      C1565   1.453       .  S
C1561      C1562   1.407       .  A
C1561      C1568   1.451       .  S
C1562      C1563   1.406       .  A
C1563      C1564   1.408       .  A
C1563      C1566   1.452       .  S
C1564      C1567   1.451       .  S
C1565      N1572   1.158       .  T
C1566      N1571   1.157       .  T
C1567      N1569   1.157       .  T
C1568      N1570   1.156       .  T
C1573      C1574   1.418       .  A
C1573      C1578   1.421       .  A
C1574      C1575   1.410       .  A
C1574      C1579   1.449       .  S
C1575      C1576   1.419       .  A
C1575      C1582   1.452       .  S
C1576      C1577   1.411       .  A
C1577      C1578   1.408       .  A
C1577      C1580   1.453       .  S
C1578      C1581   1.449       .  S
C1579      N1586   1.157   1_554  T
C1580      N1585   1.158       .  T
C1581      N1583   1.156       .  T
C1582      N1584   1.158       .  T
C1587      C1588   1.407       .  A
C1587      C1592   1.415       .  A
C1588      C1589   1.407       .  A
C1588      C1593   1.452       .  S
C1589      C1590   1.415       .  A
C1589      C1596   1.452       .  S
C1590      C1591   1.408       .  A
C1591      C1592   1.412       .  A
C1591      C1594   1.450       .  S
C1592      C1595   1.450       .  S
C1593      N1600   1.157       .  T
C1594      N1599   1.157       .  T
C1595      N1597   1.157       .  T
C1596      N1598   1.157       .  T
C1601      C1602   1.418       .  A
C1601      C1606   1.415       .  A
C1602      C1603   1.397       .  A
C1602      C1607   1.452       .  S
C1603      C1604   1.412       .  A
C1603      C1610   1.450       .  S
C1604      C1605   1.422       .  A
C1605      C1606   1.424       .  A
C1605      C1608   1.450       .  S
C1606      C1609   1.445       .  S
C1607      N1614   1.157       .  T
C1608      N1613   1.157       .  T
C1609      N1611   1.156       .  T
C1610      N1612   1.158       .  T
C1615      C1616   1.423       .  A
C1615      C1620   1.417       .  A
C1616      C1617   1.413       .  A
C1616      C1621   1.450       .  S
C1617      C1618   1.412       .  A
C1617      C1624   1.445       .  S
C1618      C1619   1.409       .  A
C1618      C1646   1.529       .  S
C1619      C1620   1.418       .  A
C1619      C1622   1.442       .  S
C1620      C1623   1.444       .  S
C1621      N1628   1.157       .  T
C1622      N1627   1.156       .  T
C1623      N1625   1.157       .  T
C1624      N1626   1.157       .  T
C1629      C1630   1.420       .  A
C1629      C1634   1.406       .  A
C1630      C1631   1.424       .  A
C1630      C1635   1.447       .  S
C1631      C1632   1.412       .  A
C1631      C1638   1.447       .  S
C1632      C1633   1.401       .  A
C1633      C1634   1.393       .  A
C1633      C1636   1.440       .  S
C1634      C1637   1.441       .  S
C1635      N1642   1.157       .  T
C1636      N1641   1.153       .  T
C1637      N1639   1.155       .  T
C1638      N1640   1.157       .  T
C1643      C1644   1.413       .  A
C1643      C1648   1.412       .  A
C1644      C1645   1.410       .  A
C1644      C1649   1.447       .  S
C1645      C1646   1.415       .  A
C1645      C1652   1.446       .  S
C1646      C1647   1.420       .  A
C1647      C1648   1.412       .  A
C1647      C1650   1.447       .  S
C1648      C1651   1.447       .  S
C1649      N1656   1.157       .  T
C1650      N1655   1.157       .  T
C1651      N1653   1.157       .  T
C1652      N1654   1.158       .  T
C1657      C1658   1.411       .  A
C1657      C1662   1.419       .  A
C1658      C1659   1.415       .  A
C1658      C1663   1.449       .  S
C1659      C1660   1.418       .  A
C1659      C1666   1.451       .  S
C1660      C1661   1.407       .  A
C1661      C1662   1.411       .  A
C1663      N1670   1.157       .  T
C1664      N1669   1.157       .  T
C1665      N1667   1.157       .  T
C1666      N1668   1.157       .  T
C1671      C1672   1.415       .  A
C1671      C1676   1.412       .  A
C1672      C1673   1.419       .  A
C1672      C1677   1.453       .  S
C1673      C1674   1.423       .  A
C1673      C1680   1.450       .  S
C1674      C1675   1.420       .  A
C1675      C1676   1.418       .  A
C1675      C1678   1.449       .  S
C1676      C1679   1.450       .  S
C1677      N1684   1.158       .  T
C1678      N1683   1.157       .  T
C1679      N1681   1.157       .  T
C1680      N1682   1.157   1_565  T
C1685      C1686   1.423       .  A
C1685      C1690   1.422       .  A
C1686      C1687   1.416       .  A
C1686      C1691   1.450       .  S
C1687      C1688   1.408       .  A
C1687      C1694   1.450       .  S
C1688      C1689   1.415       .  A
C1689      C1690   1.414       .  A
C1689      C1692   1.453       .  S
C1690      C1693   1.451       .  S
C1691      N1698   1.157       .  T
C1694      N1696   1.157       .  T
C1699      C1700   1.412       .  A
C1699      C1704   1.416       .  A
C1700      C1701   1.416       .  A
C1700      C1705   1.450       .  S
C1701      C1702   1.418       .  A
C1701      C1708   1.451       .  S
C1702      C1703   1.409       .  A
C1703      C1704   1.407       .  A
C1703      C1706   1.452       .  S
C1704      C1707   1.448       .  S
C1705      N1712   1.157       .  T
C1708      N1710   1.157       .  T
C1713      C1714   1.423       .  A
C1713      C1718   1.420       .  A
C1714      C1715   1.414       .  A
C1714      C1719   1.449       .  S
C1715      C1716   1.406       .  A
C1715      C1722   1.451       .  S
C1716      C1717   1.407       .  A
C1717      C1718   1.405       .  A
C1717      C1720   1.453       .  S
C1718      C1721   1.448       .  S
C1719      N1726   1.157       .  T
C1720      N3661   1.157       .  T
C1721      N3659   1.156   1_455  T
C1722      N1724   1.157       .  T
N1723      C3657   1.157       .  T
N1725      C3656   1.157       .  T
C1727      C1728   1.411       .  A
C1727      C1732   1.409       .  A
C1728      C1729   1.414       .  A
C1728      C1733   1.452       .  S
C1729      C1730   1.422       .  A
C1729      C1736   1.450       .  S
C1730      C1731   1.427       .  A
C1731      C1732   1.411       .  A
C1731      C1734   1.451       .  S
C1732      C1735   1.452       .  S
C1733      N1740   1.157       .  T
C1734      N1739   1.157       .  T
C1735      N1737   1.157       .  T
C1736      N1738   1.157       .  T
C1741      C1742   1.412       .  A
C1741      C1746   1.409       .  A
C1742      C1743   1.404       .  A
C1742      C1747   1.453       .  S
C1743      C1744   1.410       .  A
C1743      C1750   1.452       .  S
C1744      C1745   1.413       .  A
C1745      C1746   1.408       .  A
C1745      C1748   1.451       .  S
C1746      C1749   1.450       .  S
C1747      N3690   1.157       .  T
C1748      N1753   1.157       .  T
C1749      N1751   1.157       .  T
C1750      N3688   1.157       .  T
N1752      C3686   1.157       .  T
N1754      C3683   1.157   1_455  T
C1755      C1756   1.413       .  A
C1755      C1760   1.413       .  A
C1756      C1757   1.411       .  A
C1756      C1761   1.451       .  S
C1757      C1758   1.412       .  A
C1757      C1764   1.447       .  S
C1758      C1759   1.415       .  A
C1759      C1760   1.413       .  A
C1759      C1762   1.451       .  S
C1760      C1763   1.450       .  S
C1761      N1768   1.157       .  T
C1762      N3703   1.157       .  T
C1763      N1765   1.157       .  T
C1764      N1766   1.156       .  T
N1767      C3698   1.157       .  T
C1769      C1770   1.415       .  A
C1769      C1774   1.420       .  A
C1770      C1771   1.411       .  A
C1770      C1775   1.450       .  S
C1771      C1772   1.409       .  A
C1771      C1778   1.449       .  S
C1772      C1773   1.409       .  A
C1773      C1774   1.408       .  A
C1773      C1776   1.451       .  S
C1774      C1777   1.449       .  S
C1775      N1782   1.157       .  T
C1776      N1781   1.156       .  T
C1777      N1779   1.157       .  T
C1778      N1780   1.157       .  T
C1783      C1784   1.423       .  A
C1783      C1788   1.422       .  A
C1784      C1785   1.414       .  A
C1784      C1789   1.449       .  S
C1785      C1786   1.406       .  A
C1785      C1792   1.451       .  S
C1786      C1787   1.407       .  A
C1787      C1788   1.408       .  A
C1787      C1790   1.452       .  S
C1788      C1791   1.449       .  S
C1789      N1796   1.157       .  T
C1790      N1795   1.157       .  T
C1791      N1793   1.157       .  T
C1792      N1794   1.157       .  T
C1797      C1798   1.408       .  A
C1797      C1802   1.413       .  A
C1798      C1799   1.409       .  A
C1798      C1803   1.451       .  S
C1799      C1800   1.413       .  A
C1799      C1806   1.450       .  S
C1800      C1801   1.409       .  A
C1801      C1802   1.406       .  A
C1801      C1804   1.451       .  S
C1802      C1805   1.452       .  S
C1803      N1810   1.157       .  T
C1804      N1809   1.157       .  T
C1805      N1807   1.157       .  T
C1806      N1808   1.157       .  T
C1811      C1812   1.409       .  A
C1811      C1816   1.412       .  A
C1812      C1813   1.409       .  A
C1812      C1817   1.450       .  S
C1813      C1814   1.411       .  A
C1813      C1820   1.450       .  S
C1814      C1815   1.409       .  A
C1815      C1816   1.406       .  A
C1815      C1818   1.452       .  S
C1816      C1819   1.452       .  S
C1817      N1824   1.157       .  T
C1818      N1823   1.157       .  T
C1819      N1821   1.157       .  T
C1820      N1822   1.157       .  T
C1825      C1826   1.437       .  A
C1825      C1830   1.413       .  A
C1826      C1827   1.422       .  A
C1826      C1831   1.451       .  S
C1827      C1828   1.411       .  A
C1827      C1834   1.453       .  S
C1828      C1829   1.427       .  A
C1829      C1830   1.420       .  A
C1829      C1832   1.450       .  S
C1830      C1833   1.450       .  S
C1831      N1838   1.157       .  T
C1832      N1837   1.157       .  T
C1833      N1835   1.158       .  T
C1834      N1836   1.158       .  T
C1839      C1840   1.421       .  A
C1839      C1844   1.428       .  A
C1840      C1841   1.423       .  A
C1840      C1845   1.450       .  S
C1841      C1842   1.419       .  A
C1841      C1848   1.451       .  S
C1842      C1843   1.410       .  A
C1843      C1844   1.420       .  A
C1843      C1846   1.451       .  S
C1844      C1847   1.451       .  S
C1845      N1852   1.157       .  T
C1846      N1851   1.157       .  T
C1847      N1849   1.157       .  T
C1848      N1850   1.157       .  T
C1853      C1854   1.408       .  A
C1853      C1858   1.405       .  A
C1854      C1855   1.410       .  A
C1854      C1859   1.450       .  S
C1855      C1856   1.419       .  A
C1855      C1862   1.451       .  S
C1856      C1857   1.424       .  A
C1857      C1858   1.405       .  A
C1857      C1860   1.451       .  S
C1858      C1861   1.452       .  S
C1859      N1866   1.157       .  T
C1860      N1865   1.157       .  T
C1861      N1863   1.157       .  T
C1862      N1864   1.157       .  T
C1867      C1868   1.424       .  A
C1867      C1872   1.423       .  A
C1868      C1869   1.409       .  A
C1868      C1873   1.450       .  S
C1869      C1870   1.408       .  A
C1869      C1876   1.452       .  S
C1870      C1871   1.409       .  A
C1871      C1872   1.416       .  A
C1871      C1874   1.452       .  S
C1872      C1875   1.450       .  S
C1873      N1880   1.157       .  T
C1874      N1879   1.157       .  T
C1875      N1877   1.157       .  T
C1876      N1878   1.157       .  T
C1881      C1882   1.431       .  A
C1881      C1886   1.416       .  A
C1882      C1883   1.420       .  A
C1882      C1887   1.450       .  S
C1883      C1884   1.409       .  A
C1883      C1890   1.451       .  S
C1884      C1885   1.414       .  A
C1885      C1886   1.419       .  A
C1885      C1888   1.450       .  S
C1886      C1889   1.441       .  S
C1887      N1894   1.157       .  T
C1888      N1893   1.157       .  T
C1889      N1891   1.155       .  T
C1890      N1892   1.157       .  T
C1895      C1896   1.425       .  A
C1895      C1900   1.411       .  A
C1896      C1897   1.423       .  A
C1896      C1901   1.449       .  S
C1897      C1898   1.411       .  A
C1897      C1904   1.450       .  S
C1898      C1899   1.419       .  A
C1899      C1900   1.415       .  A
C1899      C3838   1.448       .  S
C1900      C1903   1.447       .  S
C1901      N1908   1.157       .  T
C1902      C3835   1.448       .  S
C1902      N1907   1.157   1_655  T
C1903      N3841   1.156       .  T
C1904      N1906   1.157       .  T
N1905      C3839   1.155       .  T
C1909      C1910   1.413       .  A
C1909      C1914   1.407       .  A
C1910      C1911   1.409       .  A
C1910      C1915   1.452       .  S
C1911      C1912   1.410       .  A
C1911      C1918   1.450       .  S
C1912      C1913   1.413       .  A
C1913      C1914   1.406       .  A
C1913      C1916   1.450       .  S
C1914      C1917   1.451       .  S
C1915      N1922   1.158       .  T
C1916      N1921   1.157       .  T
C1917      N1919   1.157       .  T
C1918      N1920   1.157       .  T
C1923      C1924   1.409       .  A
C1923      C1928   1.411       .  A
C1924      C1925   1.403       .  A
C1924      C1929   1.452       .  S
C1925      C1926   1.411       .  A
C1925      C1932   1.452       .  S
C1926      C1927   1.411       .  A
C1927      C1928   1.409       .  A
C1927      C1930   1.451       .  S
C1928      C1931   1.450       .  S
C1929      N1936   1.157       .  T
C1930      N1935   1.157       .  T
C1931      N1933   1.157       .  T
C1932      N1934   1.157       .  T
N1937      C1942   1.353       .  A
N1937      C1941   1.348       .  A
N1937      H1969   1.039       .  S
N1938      C1945   1.358       .  A
N1938      C1946   1.357       .  A
N1939      C1944   1.355       .  A
N1939      C1943   1.355       .  A
N1939      H1970   1.035       .  S
N1940      C1947   1.345       .  A
N1940      C1948   1.344       .  A
C1941      C1949   1.389       .  A
C1941      C1957   1.413       .  A
C1942      C1958   1.409       .  A
C1942      C1950   1.384       .  A
C1943      C1951   1.391       .  A
C1943      C1960   1.425       .  A
C1944      C1959   1.415       .  A
C1944      C1952   1.384       .  A
C1945      C1957   1.430       .  A
C1945      C1953   1.386       .  A
C1946      C1960   1.429       .  A
C1946      C1954   1.387       .  A
C1947      C1955   1.386       .  A
C1947      C1958   1.402       .  A
C1948      C1956   1.387       .  A
C1948      C1959   1.402       .  A
C1949      C1950   1.374       .  A
C1949      H1961   1.083       .  S
C1950      H1962   1.082       .  S
C1951      C1952   1.369       .  A
C1951      H1963   1.081       .  S
C1952      H1964   1.082       .  S
C1953      C1954   1.382       .  A
C1953      H1965   1.082       .  S
C1954      H1966   1.082       .  S
C1955      C1956   1.369       .  A
C1955      H1967   1.083       .  S
C1956      H1968   1.082       .  S
C1957      C2863   1.512       .  S
C1958      C2891   1.484       .  S
C1959      C2880   1.484       .  S
C1960      C2852   1.515       .  S
N1971      C1976   1.352       .  A
N1971      C1975   1.351       .  A
N1971      H2003   1.042       .  S
N1972      C1979   1.364       .  A
N1972      C1980   1.361       .  A
N1973      C1978   1.357       .  A
N1973      C1977   1.350       .  A
N1973      H2004   1.041       .  S
N1974      C1981   1.346       .  A
N1974      C1982   1.348       .  A
C1975      C1983   1.389       .  A
C1975      C1991   1.414       .  A
C1976      C1992   1.408       .  A
C1976      C1984   1.385       .  A
C1977      C1985   1.389       .  A
C1977      C1994   1.415       .  A
C1978      C1993   1.413       .  A
C1978      C1986   1.385       .  A
C1979      C1991   1.439       .  A
C1979      C1987   1.387       .  A
C1980      C1994   1.436       .  A
C1980      C1988   1.386       .  A
C1981      C1989   1.387       .  A
C1981      C1992   1.406       .  A
C1982      C1990   1.385       .  A
C1982      C1993   1.407       .  A
C1983      C1984   1.374       .  A
C1983      H1995   1.082       .  S
C1984      H1996   1.082       .  S
C1985      C1986   1.373       .  A
C1985      H1997   1.082       .  S
C1986      H1998   1.082       .  S
C1987      C1988   1.388       .  A
C1987      H1999   1.082       .  S
C1988      H2000   1.082       .  S
C1989      C1990   1.374       .  A
C1989      H2001   1.082       .  S
C1990      H2002   1.082       .  S
C1991      C2796   1.533       .  S
C1992      C2821   1.487       .  S
C1993      C2838   1.500       .  S
C1994      C2810   1.518       .  S
O2005     Zr2017   2.457       .  S
O2005      C2007   1.291       .  A
O2006     Zr2043   2.422       .  S
O2006      C2007   1.286       .  A
C2007      C2835   1.504       .  S
O2008     Zr2988   2.427       .  S
O2008      C2010   1.283       .  A
O2009     Zr2044   2.416       .  S
O2009      C2010   1.284       .  A
C2010      C2877   1.467       .  S
O2011     Zr2020   2.421       .  S
O2011      C2013   1.282       .  A
O2012     Zr2043   2.413       .  S
O2012      C2013   1.283       .  A
C2013      C2894   1.469       .  S
O2014     Zr2985   2.456       .  S
O2014      C2016   1.291       .  A
O2015     Zr2044   2.413       .  S
O2015      C2016   1.284       .  A
C2016      C2824   1.494       .  S
Zr2017     O2982   2.464       .  S
Zr2017     O2018   2.434       .  S
Zr2017     O2987   2.434       .  S
Zr2017     O2023   2.377       .  S
Zr2017     O2992   2.367       .  S
Zr2017     O3015   2.373       .  S
Zr2017     O2049   2.374       .  S
O2018      H2061   0.991       .  S
O2019     Zr2985   2.435       .  S
O2019      H3028   0.990   1_545  S
O2019      H3032   0.989       .  S
Zr2020     O2976   2.418       .  S
Zr2020     O2021   2.436       .  S
Zr2020     O2990   2.434       .  S
Zr2020     O2992   2.362       .  S
Zr2020     O2023   2.367       .  S
Zr2020     O2048   2.366       .  S
Zr2020     O3018   2.376       .  S
O2021      H3030   0.990       .  S
O2021      H2065   0.990       .  S
O2022     Zr2988   2.434       .  S
O2022      H3023   0.990       .  S
O2023     Zr2043   2.379       .  S
O2024     Zr2985   2.373       .  S
O2024     Zr2988   2.361       .  S
O2024     Zr2044   2.383       .  S
O2024      H2051   0.965       .  S
O2025     Zr3005   2.430       .  S
O2025      C2027   1.284       .  A
O2026     Zr2044   2.426       .  S
O2026      C2027   1.286       .  A
C2027      C2765   1.471       .  S
O2028     Zr2040   2.453       .  S
O2028      C2030   1.291       .  A
O2029     Zr2043   2.423       .  S
O2029      C2030   1.286       .  A
C2030      C2751   1.498       .  S
O2031     Zr3008   2.453       .  S
O2031      C2033   1.290       .  A
O2032     Zr2044   2.414       .  S
O2032      C2033   1.284       .  A
C2033      C2737   1.495       .  S
O2034     Zr2037   2.422       .  S
O2034      C2036   1.283       .  A
O2035     Zr2043   2.417       .  S
O2035      C2036   1.284       .  A
C2036      C2779   1.469       .  S
Zr2037     O2993   2.427       .  S
Zr2037     O2038   2.436       .  S
Zr2037     O2039   2.435       .  S
Zr2037     O3013   2.367       .  S
Zr2037     O2046   2.368       .  S
Zr2037     O2049   2.372       .  S
Zr2037     O3015   2.375       .  S
O2038      H3026   0.990       .  S
O2038      H3031   0.990       .  S
O2039      H3027   0.990       .  S
Zr2040     O2999   2.461       .  S
Zr2040     O3009   2.433       .  S
Zr2040     O2042   2.431       .  S
Zr2040     O2046   2.373       .  S
Zr2040     O3013   2.363       .  S
Zr2040     O3018   2.371       .  S
Zr2040     O2048   2.369       .  S
O2041     Zr3008   2.434       .  S
O2041      H3025   0.990       .  S
O2042      H3024   0.990       .  S
O2042      H3034   0.990       .  S
Zr2043     O2046   2.373       .  S
Zr2043     O2048   2.383       .  S
Zr2043     O2049   2.382       .  S
Zr2044     O2045   2.382       .  S
Zr2044     O2047   2.384       .  S
Zr2044     O2050   2.381       .  S
O2045     Zr3005   2.374       .  S
O2045     Zr3008   2.365       .  S
O2045      H2053   0.965       .  S
O2047     Zr2985   2.372       .  S
O2047     Zr3005   2.373       .  S
O2048      H2052   0.966       .  S
O2049      H2054   0.966       .  S
O2050     Zr2988   2.374       .  S
O2050     Zr3008   2.371       .  S
H2055      O2990   0.990       .  S
H2056      O3010   0.990       .  S
H2057      O3009   0.990       .  S
H2058      O3006   0.990   1_545  S
H2059      O3007   0.990       .  S
H2060      O2987   0.990       .  S
H2062      O2989   0.990       .  S
H2063      O3006   0.990   1_545  S
H2064      O2987   0.989       .  S
H2066      O3010   0.990   1_565  S
N2067      C2072   1.353       .  A
N2067      C2071   1.352       .  A
N2067      H2099   1.040       .  S
N2068      C2075   1.350       .  A
N2068      C2076   1.350       .  A
N2069      C2074   1.353       .  A
N2069      C2073   1.351       .  A
N2069      H2100   1.039       .  S
N2070      C2077   1.350       .  A
N2070      C2078   1.350       .  A
C2071      C2079   1.387       .  A
C2071      C2087   1.415       .  A
C2072      C2088   1.414       .  A
C2072      C2080   1.386       .  A
C2073      C2081   1.387       .  A
C2073      C2090   1.412       .  A
C2074      C2089   1.414       .  A
C2074      C2082   1.387       .  A
C2075      C2087   1.413       .  A
C2075      C2083   1.387       .  A
C2076      C2090   1.410       .  A
C2076      C2084   1.385       .  A
C2077      C2085   1.386       .  A
C2077      C2088   1.412       .  A
C2078      C2086   1.385       .  A
C2078      C2089   1.411       .  A
C2079      C2080   1.377       .  A
C2079      H2091   1.082       .  S
C2080      H2092   1.082       .  S
C2081      C2082   1.375       .  A
C2081      H2093   1.082       .  S
C2082      H2094   1.082       .  S
C2083      C2084   1.372       .  A
C2083      H2095   1.082       .  S
C2084      H2096   1.082       .  S
C2085      C2086   1.373       .  A
C2085      H2097   1.082       .  S
C2086      H2098   1.082       .  S
C2087      C2723   1.497       .  S
C2088      C2754   1.496       .  S
C2089      C2740   1.496       .  S
C2090      C2712   1.491       .  S
N2101      C2106   1.351       .  A
N2101      C2105   1.351       .  A
N2101      H2133   1.039       .  S
N2102      C2109   1.350       .  A
N2102      C2110   1.352       .  A
N2103      C2108   1.350       .  A
N2103      C2107   1.350       .  A
N2103      H2134   1.039       .  S
N2104      C2111   1.347       .  A
N2104      C2112   1.348       .  A
C2105      C2113   1.388       .  A
C2105      C2121   1.412       .  A
C2106      C2122   1.411       .  A
C2106      C2114   1.386       .  A
C2107      C2115   1.388       .  A
C2107      C2124   1.411       .  A
C2108      C2123   1.408       .  A
C2108      C2116   1.386       .  A
C2109      C2121   1.414       .  A
C2109      C2117   1.386       .  A
C2110      C2124   1.413       .  A
C2110      C2118   1.385       .  A
C2111      C2119   1.387       .  A
C2111      C2122   1.406       .  A
C2112      C2120   1.386       .  A
C2112      C2123   1.405       .  A
C2113      C2114   1.376       .  A
C2113      H2125   1.082       .  S
C2114      H2126   1.082       .  S
C2115      C2116   1.374       .  A
C2115      H2127   1.082       .  S
C2116      H2128   1.082       .  S
C2117      C2118   1.374       .  A
C2117      H2129   1.082       .  S
C2118      H2130   1.082       .  S
C2119      C2120   1.371       .  A
C2119      H2131   1.083       .  S
C2120      H2132   1.082       .  S
C2121      C2695   1.492       .  S
C2122      C2782   1.485       .  S
C2123      C2768   1.483       .  S
C2124      C2684   1.493       .  S
O2135     Zr2147   2.427       .  S
O2135      C2137   1.285       .  A
O2136      C2137   1.304       .  A
C2137      C2849   1.526       .  S
O2138     Zr2150   2.416       .  S
O2138      C2140   1.282       .  A
O2139      C2140   1.301       .  A
C2140      C2625   1.494       .  S
O2141     Zr2150   2.404       .  S
O2141      C2143   1.279       .  A
O2142      C2143   1.306       .  A
C2143      C2866   1.497       .  S
O2144     Zr2147   2.453       .  S
O2144      C2146   1.291       .  A
O2145      C2146   1.291       .  A
C2146      C2653   1.509       .  S
Zr2147     O2148   2.434       .  S
Zr2147     O2149   2.436       .  S
Zr2147     O2153   2.392       .  S
Zr2147     O2154   2.343       .  S
O2148      H2191   0.990       .  S
O2149      H2190   0.990       .  S
O2149      H2194   0.990       .  S
Zr2150     O2151   2.434       .  S
Zr2150     O2152   2.436       .  S
Zr2150     O3122   2.349       .  S
Zr2150     O3121   2.389       .  S
O2151      H2192   0.990       .  S
O2151      H2195   0.990       .  S
O2152      H2185   0.990       .  S
O2153     Zr3118   2.386   1_545  S
O2154     Zr3118   2.350   1_545  S
O2154      H2181   0.962       .  S
O2155     Zr2167   2.402       .  S
O2155      C2157   1.280       .  A
O2156     Zr2174   2.480       .  S
O2156      C2157   1.298       .  A
C2157      C2667   1.476       .  S
O2158     Zr2170   2.427       .  S
O2158      C2160   1.286       .  A
O2159     Zr3141   2.492       .  S
O2159      C2160   1.302       .  A
C2160      C2807   1.523       .  S
O2161     Zr2170   2.461       .  S
O2161      C2163   1.293       .  A
O2162     Zr3142   2.469       .  S
O2162      C2163   1.297       .  A
C2163      C2642   1.520       .  S
O2164     Zr2167   2.418       .  S
O2164      C2166   1.282       .  A
O2165     Zr2173   2.514       .  S
O2165      C2166   1.306       .  A
C2166      C2793   1.535       .  S
Zr2167     O2168   2.437       .  S
Zr2167     O2169   2.434       .  S
Zr2167     O2175   2.359       .  S
Zr2167     O2176   2.377       .  S
Zr2167     O2179   2.342       .  S
Zr2167     O2177   2.380       .  S
O2168      H2188   0.990       .  S
O2168      H2193   0.990       .  S
O2169      H2189   0.990       .  S
Zr2170     O2171   2.432       .  S
Zr2170     O2172   2.431       .  S
Zr2170     O3144   2.394       .  S
Zr2170     O3143   2.325       .  S
Zr2170     O2180   2.384       .  S
Zr2170     O2178   2.342       .  S
O2171      H2187   0.989       .  S
O2172      H2186   0.990       .  S
O2172      H2196   0.990       .  S
Zr2173     O3127   2.490   1_545  S
Zr2173     O2176   2.409       .  S
Zr2173     O3146   2.399   1_545  S
Zr2173     O2179   2.389       .  S
Zr2174     O3130   2.476   1_545  S
Zr2174     O2175   2.381       .  S
Zr2174     O2177   2.399       .  S
Zr2174     O3148   2.395   1_545  S
O2175     Zr3138   2.326   1_545  S
O2175      H2183   0.962   1_545  S
O2176     Zr3138   2.400   1_545  S
O2178     Zr3141   2.395       .  S
O2178      H2182   0.961       .  S
O2179      H2184   0.964       .  S
O2180     Zr3142   2.399       .  S
O2197      C2199   1.295       .  A
O2198     Zr2235   2.379       .  S
O2198      C2199   1.278       .  A
C2199      C2583   1.500       .  S
O2200     Zr2212   2.447       .  S
O2200      C2202   1.288       .  A
O2201     Zr2236   2.442       .  S
O2201      C2202   1.291       .  A
C2202      C2597   1.494       .  S
O2203      C2205   1.288       .  A
O2204     Zr2235   2.414       .  S
O2204      C2205   1.286       .  A
C2205      C2611   1.487       .  S
O2206     Zr2209   2.415       .  S
O2206      C2208   1.282       .  A
O2207     Zr2236   2.482       .  S
O2207      C2208   1.297       .  A
C2208      C2569   1.497       .  S
Zr2209     O2210   2.437       .  S
Zr2209     O2211   2.437       .  S
Zr2209     O2216   2.396       .  S
Zr2209     O2239   2.377       .  S
O2211      H2256   0.990       .  S
Zr2212     O2214   2.435       .  S
Zr2212     O2216   2.364       .  S
Zr2212     O2242   2.375       .  S
O2215     Zr2235   2.372       .  S
O2216     Zr2236   2.396       .  S
O2216      H2243   0.964       .  S
O2217     Zr2229   2.432       .  S
O2217      C2219   1.286       .  A
O2218     Zr2236   2.446   1_554  S
O2218      C2219   1.292       .  A
C2219      C2541   1.498       .  S
O2220      C2222   1.288       .  A
O2221     Zr2235   2.388   1_554  S
O2221      C2222   1.279       .  A
C2222      C2527   1.485       .  S
O2223     Zr2232   2.435       .  S
O2223      C2225   1.287       .  A
O2224     Zr2236   2.476   1_554  S
O2224      C2225   1.298       .  A
C2225      C2513   1.506       .  S
O2226      C2228   1.287       .  A
O2227     Zr2235   2.447   1_554  S
O2227      C2228   1.290       .  A
C2228      C2555   1.486       .  S
Zr2229     O2230   2.432       .  S
Zr2229     O2231   2.436       .  S
Zr2229     O2237   2.376       .  S
Zr2229     O2239   2.379   1_554  S
O2230      H2250   0.989       .  S
O2230      H2255   0.990       .  S
O2231      H2251   0.990       .  S
Zr2232     O2233   2.433       .  S
Zr2232     O2234   2.434   1_554  S
Zr2232     O2237   2.374       .  S
Zr2232     O2242   2.373   1_554  S
O2234      H2248   0.990       .  S
O2234      H2258   0.989   1_556  S
Zr2235     O2238   2.367   1_556  S
Zr2235     O2240   2.383       .  S
Zr2235     O2241   2.371       .  S
Zr2236     O2237   2.394   1_556  S
Zr2236     O2239   2.400       .  S
Zr2236     O2242   2.390       .  S
O2237      H2245   0.965       .  S
O2240      H2244   0.966       .  S
O2241      H2246   0.966       .  S
N2259      C2264   1.350       .  A
N2259      C2263   1.357       .  A
N2259      H2291   1.034       .  S
N2260      C2267   1.344       .  A
N2260      C2268   1.352       .  A
N2261      C2266   1.351       .  A
N2261      C2265   1.347       .  A
N2261      H2292   1.045       .  S
N2262      C2269   1.345       .  A
N2262      C2270   1.346       .  A
C2263      C2271   1.395       .  A
C2263      C2279   1.439       .  A
C2264      C2280   1.417       .  A
C2264      C2272   1.380       .  A
C2265      C2273   1.389       .  A
C2265      C2282   1.413       .  A
C2266      C2281   1.402       .  A
C2266      C2274   1.382       .  A
C2267      C2279   1.426       .  A
C2267      C2275   1.384       .  A
C2268      C2282   1.423       .  A
C2268      C2276   1.389       .  A
C2269      C2277   1.393       .  A
C2269      C2280   1.424       .  A
C2270      C2278   1.382       .  A
C2270      C2281   1.407       .  A
C2271      C2272   1.377       .  A
C2271      H2283   1.078       .  S
C2272      H2284   1.082       .  S
C2273      C2274   1.376       .  A
C2273      H2285   1.082       .  S
C2274      H2286   1.082       .  S
C2275      C2276   1.380       .  A
C2275      H2287   1.075       .  S
C2276      H2288   1.080       .  S
C2277      C2278   1.389       .  A
C2277      H2289   1.082       .  S
C2278      H2290   1.082       .  S
C2279      C2313   1.527       .  S
C2280      C2499   1.502       .  S
C2281      C2485   1.500       .  S
C2282      C2572   1.529       .  S
N2293      C2298   1.350       .  A
N2293      C2297   1.347       .  A
N2293      H2325   1.044       .  S
N2294      C2301   1.348       .  A
N2294      C2302   1.348       .  A
N2295      C2300   1.356       .  A
N2295      C2299   1.358       .  A
N2295      H2326   1.039       .  S
N2296      C2303   1.351       .  A
N2296      C2304   1.346       .  A
C2297      C2305   1.382       .  A
C2297      C2313   1.401       .  A
C2298      C2314   1.414       .  A
C2298      C2306   1.388       .  A
C2299      C2307   1.384       .  A
C2299      C2316   1.424       .  A
C2300      C2315   1.432       .  A
C2300      C2308   1.392       .  A
C2301      C2313   1.395       .  A
C2301      C2309   1.381       .  A
C2302      C2316   1.408       .  A
C2302      C2310   1.387       .  A
C2303      C2311   1.382       .  A
C2303      C2314   1.411       .  A
C2304      C2312   1.392       .  A
C2304      C2315   1.421       .  A
C2305      C2306   1.385       .  A
C2305      H2317   1.082       .  S
C2306      H2318   1.082       .  S
C2307      C2308   1.386       .  A
C2307      H2319   1.082       .  S
C2308      H2320   1.082       .  S
C2309      C2310   1.378       .  A
C2309      H2321   1.082       .  S
C2310      H2322   1.082       .  S
C2311      C2312   1.376       .  A
C2311      H2323   1.081       .  S
C2312      H2324   1.082       .  S
C2314      C2600   1.501       .  S
C2315      C2460   1.497       .  S
C2316      C2471   1.517       .  S
O2327     Zr2339   2.436       .  S
O2327      C2329   1.287       .  A
O2328      C2329   1.287       .  A
C2329      C2726   1.487       .  S
O2330     Zr3310   2.467   1_545  S
O2330      C2332   1.293       .  A
O2331     Zr2366   2.417       .  S
O2331      C2332   1.285       .  A
C2332      C2681   1.500       .  S
O2333     Zr2342   2.448       .  S
O2333      C2335   1.290       .  A
O2334     Zr2365   2.422       .  S
O2334      C2335   1.287       .  A
C2335      C2698   1.495       .  S
O2336     Zr3307   2.446   1_545  S
O2336      C2338   1.288       .  A
O2337      C2338   1.284       .  A
C2338      C2709   1.476       .  S
Zr2339     O3304   2.430       .  S
Zr2339     O2340   2.437       .  S
Zr2339     O2341   2.434       .  S
Zr2339     O3337   2.368       .  S
Zr2339     O2371   2.360       .  S
O2340      H2383   0.990       .  S
O2341      H2382   0.990       .  S
O2341      H2386   0.990       .  S
Zr2342     O3298   2.461       .  S
Zr2342     O2343   2.435       .  S
Zr2342     O2344   2.430       .  S
Zr2342     O3314   2.355       .  S
Zr2342     O2345   2.364       .  S
Zr2342     O2370   2.369       .  S
Zr2342     O3340   2.365       .  S
O2343      H2384   0.990       .  S
O2343      H2387   0.990       .  S
O2344      H2377   0.990       .  S
O2345     Zr2365   2.395       .  S
O2346     Zr3310   2.359   1_545  S
O2346     Zr2366   2.398       .  S
O2346      H2373   0.965       .  S
O2347     Zr3327   2.438   1_545  S
O2347      C2349   1.288       .  A
O2348      C2349   1.290       .  A
C2349      C2474   1.505       .  S
O2350     Zr2362   2.403       .  S
O2350      C2352   1.280       .  A
O2351     Zr2365   2.488       .  S
O2351      C2352   1.298       .  A
C2352      C2488   1.500       .  S
O2353     Zr3330   2.409   1_545  S
O2353      C2355   1.282       .  A
O2354     Zr2366   2.455       .  S
O2354      C2355   1.291       .  A
C2355      C2457   1.494       .  S
O2356     Zr2359   2.409       .  S
O2356      C2358   1.281       .  A
O2357      C2358   1.289       .  A
C2358      C2502   1.469       .  S
Zr2359     O3315   2.419       .  S
Zr2359     O2360   2.432       .  S
Zr2359     O2361   2.433       .  S
Zr2359     O2371   2.376       .  S
Zr2359     O3337   2.369       .  S
O2360      H2380   0.990       .  S
O2360      H2385   0.990       .  S
O2361      H2381   0.990       .  S
Zr2362     O3321   2.416       .  S
Zr2362     O2363   2.435       .  S
Zr2362     O2364   2.439       .  S
Zr2362     O2368   2.365       .  S
Zr2362     O3335   2.363       .  S
Zr2362     O3340   2.365       .  S
Zr2362     O2370   2.384       .  S
O2363      H2379   0.990       .  S
O2364      H2378   0.989       .  S
O2364      H2388   0.990       .  S
Zr2365     O2368   2.392       .  S
Zr2365     O2370   2.391       .  S
Zr2366     O2367   2.396       .  S
Zr2366     O2372   2.384       .  S
O2367     Zr3330   2.370   1_545  S
O2367      H2375   0.966       .  S
O2369     Zr3307   2.365   1_545  S
O2369     Zr3327   2.368   1_545  S
O2370      H2374   0.965       .  S
O2371      H2376   0.966       .  S
O2372     Zr3310   2.361   1_545  S
O2372     Zr3330   2.368   1_545  S
N2389      C2394   1.346       .  A
N2389      C2393   1.349       .  A
N2389      H2421   1.033       .  S
N2390      C2397   1.356       .  A
N2390      C2398   1.350       .  A
N2391      C2396   1.361       .  A
N2391      C2395   1.352       .  A
N2391      H2422   1.032       .  S
N2392      C2399   1.347       .  A
N2392      C2400   1.348       .  A
C2393      C2401   1.386       .  A
C2393      C2409   1.409       .  A
C2394      C2410   1.409       .  A
C2394      C2402   1.388       .  A
C2395      C2403   1.391       .  A
C2395      C2412   1.431       .  A
C2396      C2411   1.424       .  A
C2396      C2404   1.384       .  A
C2397      C2409   1.412       .  A
C2397      C2405   1.380       .  A
C2398      C2412   1.425       .  A
C2398      C2406   1.393       .  A
C2399      C2407   1.388       .  A
C2399      C2410   1.410       .  A
C2400      C2408   1.385       .  A
C2400      C2411   1.408       .  A
C2401      C2402   1.375       .  A
C2401      H2413   1.083       .  S
C2402      H2414   1.083       .  S
C2403      C2404   1.380       .  A
C2403      H2415   1.081       .  S
C2404      H2416   1.082       .  S
C2405      C2406   1.368       .  A
C2405      H2417   1.082       .  S
C2406      H2418   1.080       .  S
C2407      C2408   1.368       .  A
C2407      H2419   1.082       .  S
C2408      H2420   1.083       .  S
C2409      C2516   1.498       .  S
C2410      C2530   1.476       .  S
C2411      C2656   1.507       .  S
C2412      C2670   1.495       .  S
N2423      C2428   1.346       .  A
N2423      C2427   1.350       .  A
N2423      H2455   1.045       .  S
N2424      C2431   1.351       .  A
N2424      C2432   1.347       .  A
N2425      C2430   1.362       .  A
N2425      C2429   1.365       .  A
N2425      H2456   1.037       .  S
N2426      C2433   1.356       .  A
N2426      C2434   1.351       .  A
C2427      C2435   1.382       .  A
C2427      C2443   1.398       .  A
C2428      C2444   1.406       .  A
C2428      C2436   1.387       .  A
C2429      C2437   1.388       .  A
C2429      C2446   1.439       .  A
C2430      C2445   1.433       .  A
C2430      C2438   1.386       .  A
C2431      C2443   1.402       .  A
C2431      C2439   1.379       .  A
C2432      C2446   1.422       .  A
C2432      C2440   1.394       .  A
C2433      C2441   1.386       .  A
C2433      C2444   1.418       .  A
C2434      C2442   1.389       .  A
C2434      C2445   1.421       .  A
C2435      C2436   1.377       .  A
C2435      H2447   1.082       .  S
C2436      H2448   1.083       .  S
C2437      C2438   1.382       .  A
C2437      H2449   1.082       .  S
C2438      H2450   1.082       .  S
C2439      C2440   1.372       .  A
C2439      H2451   1.082       .  S
C2440      H2452   1.081       .  S
C2441      C2442   1.374       .  A
C2441      H2453   1.082       .  S
C2442      H2454   1.082       .  S
C2443      C2558   1.495       .  S
C2444      C2544   1.532       .  S
C2445      C2639   1.515       .  S
C2446      C2628   1.516       .  S
C2457      C2458   1.419       .  A
C2457      C2462   1.413       .  A
C2458      C2459   1.398       .  A
C2458      C2463   1.451       .  S
C2459      C2460   1.405       .  A
C2459      C2466   1.451       .  S
C2460      C2461   1.417       .  A
C2461      C2462   1.420       .  A
C2461      C2464   1.448       .  S
C2462      C2465   1.447       .  S
C2463      N2470   1.156       .  T
C2464      N2469   1.157       .  T
C2465      N2467   1.157       .  T
C2466      N2468   1.157       .  T
C2471      C2472   1.416       .  A
C2471      C2476   1.425       .  A
C2472      C2473   1.408       .  A
C2472      C2477   1.446       .  S
C2473      C2474   1.415       .  A
C2473      C2480   1.452       .  S
C2474      C2475   1.414       .  A
C2475      C2476   1.420       .  A
C2475      C2478   1.448       .  S
C2476      C2479   1.450       .  S
C2477      N2484   1.155       .  T
C2478      N2483   1.157       .  T
C2479      N2481   1.157       .  T
C2480      N2482   1.157       .  T
C2485      C2486   1.412       .  A
C2485      C2490   1.412       .  A
C2486      C2487   1.420       .  A
C2486      C2491   1.450       .  S
C2487      C2488   1.417       .  A
C2487      C2494   1.446       .  S
C2488      C2489   1.421       .  A
C2489      C2490   1.409       .  A
C2489      C2492   1.453       .  S
C2490      C2493   1.453       .  S
C2491      N2498   1.157       .  T
C2492      N2497   1.157       .  T
C2493      N2495   1.157       .  T
C2494      N2496   1.156       .  T
C2499      C2500   1.421       .  A
C2499      C2504   1.413       .  A
C2500      C2501   1.409       .  A
C2500      C2505   1.449       .  S
C2501      C2502   1.405       .  A
C2501      C2508   1.453       .  S
C2502      C2503   1.411       .  A
C2503      C2504   1.408       .  A
C2503      C2506   1.451       .  S
C2504      C2507   1.450       .  S
C2505      N2512   1.156       .  T
C2506      N2511   1.157       .  T
C2507      N2509   1.157       .  T
C2508      N2510   1.158       .  T
C2513      C2514   1.413       .  A
C2513      C2518   1.425       .  A
C2514      C2515   1.404       .  A
C2514      C2519   1.436       .  S
C2515      C2516   1.405       .  A
C2515      C2522   1.454       .  S
C2516      C2517   1.408       .  A
C2517      C2518   1.421       .  A
C2517      C2520   1.449       .  S
C2518      C2521   1.449       .  S
C2519      N2526   1.152       .  T
C2520      N2525   1.157       .  T
C2521      N2523   1.157       .  T
C2522      N2524   1.157       .  T
C2527      C2528   1.422       .  A
C2527      C2532   1.420       .  A
C2528      C2529   1.401       .  A
C2528      C2533   1.453       .  S
C2529      C2530   1.405       .  A
C2529      C2536   1.452       .  S
C2530      C2531   1.404       .  A
C2531      C2532   1.406       .  A
C2531      C2534   1.452       .  S
C2532      C2535   1.450       .  S
C2533      N2540   1.158       .  T
C2534      N2539   1.157       .  T
C2535      N2537   1.157       .  T
C2536      N2538   1.157       .  T
C2541      C2542   1.415       .  A
C2541      C2546   1.419       .  A
C2542      C2543   1.410       .  A
C2542      C2547   1.449       .  S
C2543      C2544   1.421       .  A
C2543      C2550   1.452       .  S
C2544      C2545   1.418       .  A
C2545      C2546   1.414       .  A
C2545      C2548   1.452       .  S
C2546      C2549   1.451       .  S
C2547      N2554   1.157   1_554  T
C2548      N2553   1.158       .  T
C2549      N2551   1.157       .  T
C2550      N2552   1.158       .  T
C2555      C2556   1.409       .  A
C2555      C2560   1.416       .  A
C2556      C2557   1.409       .  A
C2556      C2561   1.451       .  S
C2557      C2558   1.415       .  A
C2557      C2564   1.452       .  S
C2558      C2559   1.410       .  A
C2559      C2560   1.416       .  A
C2559      C2562   1.450       .  S
C2560      C2563   1.450       .  S
C2561      N2568   1.157       .  T
C2562      N2567   1.157       .  T
C2563      N2565   1.157       .  T
C2564      N2566   1.157       .  T
C2569      C2570   1.419       .  A
C2569      C2574   1.414       .  A
C2570      C2571   1.398       .  A
C2570      C2575   1.452       .  S
C2571      C2572   1.412       .  A
C2571      C2578   1.450       .  S
C2572      C2573   1.420       .  A
C2573      C2574   1.424       .  A
C2573      C2576   1.449       .  S
C2574      C2577   1.444       .  S
C2575      N2582   1.157       .  T
C2576      N2581   1.157       .  T
C2577      N2579   1.156       .  T
C2578      N2580   1.158       .  T
C2583      C2584   1.428       .  A
C2583      C2588   1.419       .  A
C2584      C2585   1.412       .  A
C2584      C2589   1.450       .  S
C2585      C2586   1.409       .  A
C2585      C2592   1.444       .  S
C2586      C2587   1.408       .  A
C2586      C2614   1.530       .  S
C2587      C2588   1.417       .  A
C2587      C2590   1.442       .  S
C2588      C2591   1.444       .  S
C2589      N2596   1.158       .  T
C2590      N2595   1.156       .  T
C2591      N2593   1.157       .  T
C2592      N2594   1.157       .  T
C2597      C2598   1.420       .  A
C2597      C2602   1.407       .  A
C2598      C2599   1.424       .  A
C2598      C2603   1.448       .  S
C2599      C2600   1.413       .  A
C2599      C2606   1.447       .  S
C2600      C2601   1.404       .  A
C2601      C2602   1.394       .  A
C2601      C2604   1.442       .  S
C2602      C2605   1.442       .  S
C2603      N2610   1.157       .  T
C2604      N2609   1.153       .  T
C2605      N2607   1.155       .  T
C2606      N2608   1.157       .  T
C2611      C2612   1.412       .  A
C2611      C2616   1.415       .  A
C2612      C2613   1.408       .  A
C2612      C2617   1.449       .  S
C2613      C2614   1.415       .  A
C2613      C2620   1.445       .  S
C2614      C2615   1.418       .  A
C2615      C2616   1.411       .  A
C2615      C2618   1.447       .  S
C2616      C2619   1.448       .  S
C2617      N2624   1.157       .  T
C2618      N2623   1.157       .  T
C2619      N2621   1.157       .  T
C2620      N2622   1.157       .  T
C2625      C2626   1.411       .  A
C2625      C2630   1.417       .  A
C2626      C2627   1.418       .  A
C2626      C2631   1.450       .  S
C2627      C2628   1.422       .  A
C2627      C2634   1.451       .  S
C2628      C2629   1.413       .  A
C2629      C2630   1.414       .  A
C2629      C3600   1.450       .  S
C2630      C3601   1.449       .  S
C2631      N2638   1.157       .  T
C2632      C3597   1.450       .  S
C2632      N2637   1.157       .  T
C2633      C3598   1.448       .  S
C2633      N2635   1.157   1_565  T
C2634      N2636   1.157       .  T
C2639      C2640   1.415       .  A
C2639      C2644   1.410       .  A
C2640      C2641   1.421       .  A
C2640      C2645   1.452       .  S
C2641      C2642   1.424       .  A
C2641      C2648   1.449       .  S
C2642      C2643   1.423       .  A
C2643      C2644   1.418       .  A
C2643      C2646   1.449       .  S
C2644      C2647   1.451       .  S
C2645      N2652   1.158       .  T
C2646      N2651   1.157       .  T
C2647      N2649   1.157       .  T
C2648      N2650   1.157       .  T
C2653      C2654   1.422       .  A
C2653      C2658   1.422       .  A
C2654      C2655   1.417       .  A
C2654      C2659   1.451       .  S
C2655      C2656   1.411       .  A
C2655      C2662   1.450       .  S
C2656      C2657   1.415       .  A
C2657      C2658   1.413       .  A
C2657      C2660   1.453       .  S
C2658      C2661   1.451       .  S
C2659      N2666   1.157       .  T
C2660      N3633   1.157       .  T
C2661      N3631   1.157   1_545  T
C2662      N2664   1.157       .  T
N2663      C3629   1.157       .  T
N2665      C3628   1.157       .  T
C2667      C2668   1.409       .  A
C2667      C2672   1.414       .  A
C2668      C2669   1.412       .  A
C2668      C2673   1.450       .  S
C2669      C2670   1.417       .  A
C2669      C2676   1.451       .  S
C2670      C2671   1.409       .  A
C2671      C2672   1.404       .  A
C2671      C2674   1.452       .  S
C2672      C2675   1.449       .  S
C2673      N2680   1.157       .  T
C2674      N3647   1.157   1_545  T
C2675      N3645   1.157   1_545  T
C2676      N2678   1.157       .  T
N2677      C3643   1.157       .  T
N2679      C3642   1.157       .  T
C2681      C2682   1.420       .  A
C2681      C2686   1.422       .  A
C2682      C2683   1.415       .  A
C2682      C2687   1.450       .  S
C2683      C2684   1.410       .  A
C2683      C2690   1.451       .  S
C2684      C2685   1.405       .  A
C2685      C2686   1.406       .  A
C2685      C2688   1.453       .  S
C2686      C2689   1.447       .  S
C2687      N2694   1.157       .  T
C2690      N2692   1.157       .  T
C2695      C2696   1.410       .  A
C2695      C2700   1.406       .  A
C2696      C2697   1.414       .  A
C2696      C2701   1.450       .  S
C2697      C2698   1.419       .  A
C2697      C2704   1.450       .  S
C2698      C2699   1.417       .  A
C2699      C2700   1.403       .  A
C2699      C2702   1.445       .  S
C2700      C2703   1.451       .  S
C2701      N2708   1.157       .  T
C2702      N2707   1.156       .  T
C2703      N2705   1.156       .  T
C2704      N2706   1.157       .  T
C2709      C2710   1.413       .  A
C2709      C2714   1.411       .  A
C2710      C2711   1.407       .  A
C2710      C2715   1.451       .  S
C2711      C2712   1.410       .  A
C2711      C2718   1.451       .  S
C2712      C2713   1.413       .  A
C2713      C2714   1.410       .  A
C2713      C2716   1.451       .  S
C2714      C2717   1.450       .  S
C2716      N2721   1.157       .  T
C2717      N2719   1.157       .  T
C2723      C2724   1.414       .  A
C2723      C2728   1.411       .  A
C2724      C2725   1.411       .  A
C2724      C2729   1.452       .  S
C2725      C2726   1.414       .  A
C2725      C2732   1.448       .  S
C2726      C2727   1.416       .  A
C2727      C2728   1.408       .  A
C2727      C2730   1.451       .  S
C2728      C2731   1.452       .  S
C2729      N2736   1.157       .  T
C2731      N2733   1.157       .  T
C2732      N2734   1.157       .  T
C2737      C2738   1.418       .  A
C2737      C2742   1.419       .  A
C2738      C2739   1.412       .  A
C2738      C2743   1.450       .  S
C2739      C2740   1.410       .  A
C2739      C2746   1.451       .  S
C2740      C2741   1.410       .  A
C2741      C2742   1.407       .  A
C2741      C2744   1.451       .  S
C2742      C2745   1.451       .  S
C2743      N2750   1.157       .  T
C2744      N2749   1.156       .  T
C2745      N2747   1.157       .  T
C2746      N2748   1.157       .  T
C2751      C2752   1.420       .  A
C2751      C2756   1.419       .  A
C2752      C2753   1.414       .  A
C2752      C2757   1.450       .  S
C2753      C2754   1.409       .  A
C2753      C2760   1.451       .  S
C2754      C2755   1.409       .  A
C2755      C2756   1.407       .  A
C2755      C2758   1.451       .  S
C2756      C2759   1.449       .  S
C2757      N2764   1.157       .  T
C2758      N2763   1.156       .  T
C2759      N2761   1.157       .  T
C2760      N2762   1.157       .  T
C2765      C2766   1.410       .  A
C2765      C2770   1.413       .  A
C2766      C2767   1.409       .  A
C2766      C2771   1.450       .  S
C2767      C2768   1.411       .  A
C2767      C2774   1.451       .  S
C2768      C2769   1.408       .  A
C2769      C2770   1.404       .  A
C2769      C2772   1.452       .  S
C2770      C2773   1.452       .  S
C2771      N2778   1.157       .  T
C2772      N2777   1.157       .  T
C2773      N2775   1.157       .  T
C2774      N2776   1.157       .  T
C2779      C2780   1.409       .  A
C2779      C2784   1.413       .  A
C2780      C2781   1.408       .  A
C2780      C2785   1.450       .  S
C2781      C2782   1.413       .  A
C2781      C2788   1.451       .  S
C2782      C2783   1.409       .  A
C2783      C2784   1.405       .  A
C2783      C2786   1.451       .  S
C2784      C2787   1.452       .  S
C2785      N2792   1.157       .  T
C2786      N2791   1.157       .  T
C2787      N2789   1.157       .  T
C2788      N2790   1.157       .  T
C2793      C2794   1.436       .  A
C2793      C2798   1.412       .  A
C2794      C2795   1.423       .  A
C2794      C2799   1.451       .  S
C2795      C2796   1.412       .  A
C2795      C2802   1.452       .  S
C2796      C2797   1.429       .  A
C2797      C2798   1.422       .  A
C2797      C2800   1.450       .  S
C2798      C2801   1.450       .  S
C2799      N2806   1.157       .  T
C2800      N2805   1.157       .  T
C2801      N2803   1.158       .  T
C2802      N2804   1.157       .  T
C2807      C2808   1.421       .  A
C2807      C2812   1.429       .  A
C2808      C2809   1.424       .  A
C2808      C2813   1.451       .  S
C2809      C2810   1.422       .  A
C2809      C2816   1.452       .  S
C2810      C2811   1.407       .  A
C2811      C2812   1.417       .  A
C2811      C2814   1.450       .  S
C2812      C2815   1.451       .  S
C2813      N2820   1.158       .  T
C2814      N2819   1.157       .  T
C2815      N2817   1.157       .  T
C2816      N2818   1.157       .  T
C2821      C2822   1.407       .  A
C2821      C2826   1.405       .  A
C2822      C2823   1.411       .  A
C2822      C2827   1.450       .  S
C2823      C2824   1.420       .  A
C2823      C2830   1.450       .  S
C2824      C2825   1.422       .  A
C2825      C2826   1.404       .  A
C2825      C2828   1.450       .  S
C2826      C2829   1.452       .  S
C2827      N2834   1.157       .  T
C2828      N2833   1.157       .  T
C2829      N2831   1.157       .  T
C2830      N2832   1.157       .  T
C2835      C2836   1.423       .  A
C2835      C2840   1.422       .  A
C2836      C2837   1.409       .  A
C2836      C2841   1.450       .  S
C2837      C2838   1.409       .  A
C2837      C2844   1.452       .  S
C2838      C2839   1.411       .  A
C2839      C2840   1.415       .  A
C2839      C2842   1.451       .  S
C2840      C2843   1.451       .  S
C2841      N2848   1.157       .  T
C2842      N2847   1.157       .  T
C2843      N2845   1.157       .  T
C2844      N2846   1.157       .  T
C2849      C2850   1.431       .  A
C2849      C2854   1.418       .  A
C2850      C2851   1.417       .  A
C2850      C2855   1.450       .  S
C2851      C2852   1.408       .  A
C2851      C2858   1.453       .  S
C2852      C2853   1.417       .  A
C2853      C2854   1.420       .  A
C2853      C2856   1.452       .  S
C2854      C2857   1.443       .  S
C2855      N2862   1.157       .  T
C2856      N2861   1.157       .  T
C2857      N2859   1.156       .  T
C2858      N2860   1.157       .  T
C2863      C2864   1.420       .  A
C2863      C2868   1.408       .  A
C2864      C2865   1.418       .  A
C2864      C2869   1.451       .  S
C2865      C2866   1.413       .  A
C2865      C2872   1.449       .  S
C2866      C2867   1.422       .  A
C2867      C2868   1.414       .  A
C2868      C2871   1.449       .  S
C2869      N2876   1.157       .  T
C2870      N2875   1.157       .  T
C2872      N2874   1.157       .  T
C2877      C2878   1.412       .  A
C2877      C2882   1.408       .  A
C2878      C2879   1.404       .  A
C2878      C2883   1.451       .  S
C2879      C2880   1.407       .  A
C2879      C2886   1.451       .  S
C2880      C2881   1.413       .  A
C2881      C2882   1.406       .  A
C2881      C2884   1.452       .  S
C2882      C2885   1.451       .  S
C2883      N2890   1.157       .  T
C2884      N2889   1.157       .  T
C2885      N2887   1.157       .  T
C2886      N2888   1.157       .  T
C2891      C2892   1.409       .  A
C2891      C2896   1.412       .  A
C2892      C2893   1.404       .  A
C2892      C2897   1.451       .  S
C2893      C2894   1.411       .  A
C2893      C2900   1.452       .  S
C2894      C2895   1.410       .  A
C2895      C2896   1.409       .  A
C2895      C2898   1.452       .  S
C2896      C2899   1.450       .  S
C2897      N2904   1.157       .  T
C2898      N2903   1.158       .  T
C2899      N2901   1.157       .  T
C2900      N2902   1.157       .  T
N2905      C2910   1.356       .  A
N2905      C2909   1.351       .  A
N2905      H2937   1.041       .  S
N2906      C2913   1.362       .  A
N2906      C2914   1.361       .  A
N2907      C2912   1.355       .  A
N2907      C2911   1.356       .  A
N2907      H2938   1.036       .  S
N2908      C2915   1.347       .  A
N2908      C2916   1.344       .  A
C2909      C2917   1.389       .  A
C2909      C2925   1.416       .  A
C2910      C2926   1.411       .  A
C2910      C2918   1.383       .  A
C2911      C2919   1.391       .  A
C2911      C2928   1.426       .  A
C2912      C2927   1.416       .  A
C2912      C2920   1.385       .  A
C2913      C2925   1.440       .  A
C2913      C2921   1.388       .  A
C2914      C2928   1.437       .  A
C2914      C2922   1.386       .  A
C2915      C2923   1.386       .  A
C2915      C2926   1.403       .  A
C2916      C2924   1.388       .  A
C2916      C2927   1.405       .  A
C2917      C2918   1.375       .  A
C2917      H2929   1.082       .  S
C2918      H2930   1.082       .  S
C2919      C2920   1.368       .  A
C2919      H2931   1.081       .  S
C2920      H2932   1.082       .  S
C2921      C2922   1.387       .  A
C2921      H2933   1.082       .  S
C2922      H2934   1.082       .  S
C2923      C2924   1.371       .  A
C2923      H2935   1.083       .  S
C2924      H2936   1.083       .  S
C2925      C3831   1.529       .  S
C2926      C3859   1.493       .  S
C2927      C3848   1.485       .  S
C2928      C3820   1.526       .  S
N2939      C2944   1.351       .  A
N2939      C2943   1.353       .  A
N2939      H2971   1.042       .  S
N2940      C2947   1.362       .  A
N2940      C2948   1.358       .  A
N2941      C2946   1.356       .  A
N2941      C2945   1.347       .  A
N2941      H2972   1.041       .  S
N2942      C2949   1.345       .  A
N2942      C2950   1.348       .  A
C2943      C2951   1.388       .  A
C2943      C2959   1.414       .  A
C2944      C2960   1.410       .  A
C2944      C2952   1.387       .  A
C2945      C2953   1.389       .  A
C2945      C2962   1.412       .  A
C2946      C2961   1.412       .  A
C2946      C2954   1.385       .  A
C2947      C2959   1.435       .  A
C2947      C2955   1.386       .  A
C2948      C2962   1.430       .  A
C2948      C2956   1.385       .  A
C2949      C2957   1.388       .  A
C2949      C2960   1.407       .  A
C2950      C2958   1.385       .  A
C2950      C2961   1.406       .  A
C2951      C2952   1.376       .  A
C2951      H2963   1.082       .  S
C2952      H2964   1.083       .  S
C2953      C2954   1.374       .  A
C2953      H2965   1.082       .  S
C2954      H2966   1.082       .  S
C2955      C2956   1.387       .  A
C2955      H2967   1.082       .  S
C2956      H2968   1.082       .  S
C2957      C2958   1.376       .  A
C2957      H2969   1.082       .  S
C2958      H2970   1.082       .  S
C2959      C3764   1.533       .  S
C2960      C3789   1.485       .  S
C2961      C3806   1.498       .  S
C2962      C3778   1.507       .  S
O2973     Zr2985   2.449   1_565  S
O2973      C2975   1.289       .  A
O2974     Zr3011   2.419       .  S
O2974      C2975   1.286       .  A
C2975      C3803   1.499       .  S
O2976      C2978   1.282       .  A
O2977     Zr3012   2.412       .  S
O2977      C2978   1.283       .  A
C2978      C3845   1.464       .  S
O2979     Zr2988   2.418   1_565  S
O2979      C2981   1.283       .  A
O2980     Zr3011   2.432       .  S
O2980      C2981   1.287       .  A
C2981      C3862   1.477       .  S
O2982      C2984   1.293       .  A
O2983     Zr3012   2.412       .  S
O2983      C2984   1.284       .  A
C2984      C3792   1.496       .  S
Zr2985     O2986   2.435       .  S
Zr2985     O2991   2.378   1_545  S
Zr2985     O3017   2.373   1_545  S
O2986      H3029   0.990   1_545  S
Zr2988     O2989   2.438       .  S
Zr2988     O2991   2.369   1_545  S
Zr2988     O3016   2.373   1_545  S
O2989      H3033   0.990       .  S
O2991     Zr3011   2.378       .  S
O2992     Zr3012   2.383       .  S
O2992      H3019   0.965       .  S
O2993      C2995   1.284       .  A
O2994     Zr3012   2.422       .  S
O2994      C2995   1.285       .  A
C2995      C3733   1.470       .  S
O2996     Zr3008   2.448   1_565  S
O2996      C2998   1.290       .  A
O2997     Zr3011   2.419       .  S
O2997      C2998   1.286       .  A
C2998      C3719   1.498       .  S
O2999      C3001   1.292       .  A
O3000     Zr3012   2.420       .  S
O3000      C3001   1.285       .  A
C3001      C3705   1.499       .  S
O3002     Zr3005   2.425   1_565  S
O3002      C3004   1.284       .  A
O3003     Zr3011   2.425       .  S
O3003      C3004   1.286       .  A
C3004      C3747   1.477       .  S
Zr3005     O3006   2.439   1_545  S
Zr3005     O3007   2.434       .  S
Zr3005     O3014   2.371   1_545  S
Zr3005     O3017   2.373   1_545  S
Zr3008     O3010   2.431       .  S
Zr3008     O3014   2.369   1_545  S
Zr3008     O3016   2.371   1_545  S
Zr3011     O3014   2.376       .  S
Zr3011     O3016   2.384       .  S
Zr3011     O3017   2.389       .  S
Zr3012     O3013   2.374       .  S
Zr3012     O3015   2.383       .  S
Zr3012     O3018   2.382       .  S
O3013      H3021   0.964       .  S
O3016      H3020   0.966       .  S
O3017      H3022   0.966       .  S
N3035      C3040   1.352       .  A
N3035      C3039   1.355       .  A
N3035      H3067   1.040       .  S
N3036      C3043   1.350       .  A
N3036      C3044   1.347       .  A
N3037      C3042   1.351       .  A
N3037      C3041   1.348       .  A
N3037      H3068   1.040       .  S
N3038      C3045   1.348       .  A
N3038      C3046   1.352       .  A
C3039      C3047   1.385       .  A
C3039      C3055   1.417       .  A
C3040      C3056   1.418       .  A
C3040      C3048   1.389       .  A
C3041      C3049   1.388       .  A
C3041      C3058   1.408       .  A
C3042      C3057   1.409       .  A
C3042      C3050   1.386       .  A
C3043      C3055   1.410       .  A
C3043      C3051   1.386       .  A
C3044      C3058   1.407       .  A
C3044      C3052   1.386       .  A
C3045      C3053   1.388       .  A
C3045      C3056   1.413       .  A
C3046      C3054   1.384       .  A
C3046      C3057   1.411       .  A
C3047      C3048   1.379       .  A
C3047      H3059   1.082       .  S
C3048      H3060   1.082       .  S
C3049      C3050   1.374       .  A
C3049      H3061   1.082       .  S
C3050      H3062   1.082       .  S
C3051      C3052   1.372       .  A
C3051      H3063   1.082       .  S
C3052      H3064   1.082       .  S
C3053      C3054   1.373       .  A
C3053      H3065   1.082       .  S
C3054      H3066   1.082       .  S
C3055      C3691   1.502       .  S
C3056      C3722   1.494       .  S
C3057      C3708   1.496       .  S
C3058      C3680   1.479       .  S
N3069      C3074   1.354       .  A
N3069      C3073   1.351       .  A
N3069      H3101   1.040       .  S
N3070      C3077   1.347       .  A
N3070      C3078   1.349       .  A
N3071      C3076   1.350       .  A
N3071      C3075   1.353       .  A
N3071      H3102   1.040       .  S
N3072      C3079   1.349       .  A
N3072      C3080   1.347       .  A
C3073      C3081   1.389       .  A
C3073      C3089   1.416       .  A
C3074      C3090   1.413       .  A
C3074      C3082   1.385       .  A
C3075      C3083   1.386       .  A
C3075      C3092   1.411       .  A
C3076      C3091   1.411       .  A
C3076      C3084   1.387       .  A
C3077      C3089   1.411       .  A
C3077      C3085   1.388       .  A
C3078      C3092   1.407       .  A
C3078      C3086   1.385       .  A
C3079      C3087   1.385       .  A
C3079      C3090   1.407       .  A
C3080      C3088   1.387       .  A
C3080      C3091   1.407       .  A
C3081      C3082   1.377       .  A
C3081      H3093   1.082       .  S
C3082      H3094   1.082       .  S
C3083      C3084   1.376       .  A
C3083      H3095   1.082       .  S
C3084      H3096   1.082       .  S
C3085      C3086   1.373       .  A
C3085      H3097   1.083       .  S
C3086      H3098   1.083       .  S
C3087      C3088   1.372       .  A
C3087      H3099   1.082       .  S
C3088      H3100   1.083       .  S
C3089      C3663   1.490       .  S
C3090      C3750   1.495       .  S
C3091      C3736   1.484       .  S
C3092      C3652   1.492       .  S
O3103     Zr3115   2.428       .  S
O3103      C3105   1.286       .  A
O3104      C3105   1.308       .  A
C3105      C3817   1.534       .  S
O3106     Zr3118   2.421       .  S
O3106      C3108   1.283       .  A
O3107      C3108   1.301       .  A
C3108      C3593   1.495       .  S
O3109     Zr3118   2.408       .  S
O3109      C3111   1.281       .  A
O3110      C3111   1.309       .  A
C3111      C3834   1.505       .  S
O3112     Zr3115   2.462       .  S
O3112      C3114   1.293       .  A
O3113      C3114   1.292       .  A
C3114      C3621   1.510       .  S
Zr3115     O3116   2.432       .  S
Zr3115     O3117   2.435       .  S
Zr3115     O3121   2.397       .  S
Zr3115     O3122   2.340       .  S
O3116      H3159   0.990       .  S
O3117      H3158   0.990       .  S
O3117      H3162   0.990       .  S
Zr3118     O3119   2.436       .  S
Zr3118     O3120   2.433       .  S
O3119      H3160   0.990       .  S
O3119      H3163   0.990       .  S
O3120      H3153   0.990       .  S
O3122      H3149   0.960       .  S
O3123     Zr3135   2.407       .  S
O3123      C3125   1.280       .  A
O3124     Zr3142   2.494       .  S
O3124      C3125   1.301       .  A
C3125      C3635   1.486       .  S
O3126     Zr3138   2.416       .  S
O3126      C3128   1.285       .  A
O3127      C3128   1.301       .  A
C3128      C3775   1.515       .  S
O3129     Zr3138   2.470       .  S
O3129      C3131   1.294       .  A
O3130      C3131   1.298       .  A
C3131      C3610   1.531       .  S
O3132     Zr3135   2.421       .  S
O3132      C3134   1.282       .  A
O3133     Zr3141   2.515       .  S
O3133      C3134   1.307       .  A
C3134      C3761   1.536       .  S
Zr3135     O3136   2.437       .  S
Zr3135     O3137   2.435       .  S
Zr3135     O3143   2.352       .  S
Zr3135     O3144   2.383       .  S
Zr3135     O3147   2.347       .  S
Zr3135     O3145   2.381       .  S
O3136      H3156   0.990       .  S
O3136      H3161   0.990       .  S
O3137      H3157   0.989       .  S
Zr3138     O3139   2.431       .  S
Zr3138     O3140   2.434       .  S
Zr3138     O3148   2.373       .  S
Zr3138     O3146   2.351       .  S
O3139      H3155   0.990       .  S
O3140      H3154   0.990       .  S
O3140      H3164   0.990       .  S
Zr3141     O3144   2.413       .  S
Zr3141     O3147   2.397       .  S
Zr3142     O3143   2.385       .  S
Zr3142     O3145   2.402       .  S
O3143      H3151   0.962       .  S
O3146      H3150   0.961       .  S
O3147      H3152   0.964       .  S
O3165      C3167   1.289       .  A
O3166     Zr3203   2.406       .  S
O3166      C3167   1.282       .  A
C3167      C3551   1.495       .  S
O3168     Zr3180   2.462       .  S
O3168      C3170   1.290       .  A
O3169     Zr3204   2.433       .  S
O3169      C3170   1.289       .  A
C3170      C3565   1.496       .  S
O3171      C3173   1.291       .  A
O3172     Zr3203   2.389       .  S
O3172      C3173   1.281       .  A
C3173      C3579   1.489       .  S
O3174     Zr3177   2.420       .  S
O3174      C3176   1.284       .  A
O3175     Zr3204   2.466       .  S
O3175      C3176   1.294       .  A
C3176      C3537   1.490       .  S
Zr3177     O3178   2.433       .  S
Zr3177     O3179   2.436       .  S
Zr3177     O3184   2.397       .  S
Zr3177     O3207   2.386       .  S
O3179      H3224   0.990       .  S
Zr3180     O3182   2.434       .  S
Zr3180     O3184   2.368       .  S
Zr3180     O3210   2.375       .  S
O3183     Zr3203   2.368       .  S
O3184     Zr3204   2.403       .  S
O3184      H3211   0.964       .  S
O3185     Zr3197   2.435       .  S
O3185      C3187   1.287       .  A
O3186     Zr3204   2.443   1_554  S
O3186      C3187   1.291       .  A
C3187      C3509   1.496       .  S
O3188      C3190   1.291       .  A
O3189     Zr3203   2.393   1_554  S
O3189      C3190   1.280       .  A
C3190      C3495   1.490       .  S
O3191     Zr3200   2.426       .  S
O3191      C3193   1.285       .  A
O3192     Zr3204   2.472   1_554  S
O3192      C3193   1.296       .  A
C3193      C3481   1.503       .  S
O3194      C3196   1.285       .  A
O3195     Zr3203   2.418   1_554  S
O3195      C3196   1.284       .  A
C3196      C3523   1.467       .  S
Zr3197     O3198   2.432       .  S
Zr3197     O3199   2.435       .  S
Zr3197     O3205   2.370       .  S
Zr3197     O3207   2.382   1_554  S
O3198      H3218   0.989       .  S
O3198      H3223   0.990       .  S
O3199      H3219   0.990       .  S
Zr3200     O3201   2.433       .  S
Zr3200     O3202   2.433   1_554  S
Zr3200     O3205   2.374       .  S
Zr3200     O3210   2.371   1_554  S
O3202      H3216   0.990       .  S
O3202      H3226   0.989   1_556  S
Zr3203     O3206   2.366   1_556  S
Zr3203     O3208   2.382       .  S
Zr3203     O3209   2.377       .  S
Zr3204     O3205   2.387   1_556  S
Zr3204     O3207   2.401       .  S
Zr3204     O3210   2.384       .  S
O3205      H3213   0.965       .  S
O3208      H3212   0.966       .  S
O3209      H3214   0.966       .  S
N3227      C3232   1.353       .  A
N3227      C3231   1.357       .  A
N3227      H3259   1.034       .  S
N3228      C3235   1.344       .  A
N3228      C3236   1.352       .  A
N3229      C3234   1.350       .  A
N3229      C3233   1.347       .  A
N3229      H3260   1.045       .  S
N3230      C3237   1.347       .  A
N3230      C3238   1.345       .  A
C3231      C3239   1.393       .  A
C3231      C3247   1.440       .  A
C3232      C3248   1.423       .  A
C3232      C3240   1.380       .  A
C3233      C3241   1.390       .  A
C3233      C3250   1.415       .  A
C3234      C3249   1.399       .  A
C3234      C3242   1.381       .  A
C3235      C3247   1.428       .  A
C3235      C3243   1.386       .  A
C3236      C3250   1.428       .  A
C3236      C3244   1.390       .  A
C3237      C3245   1.391       .  A
C3237      C3248   1.423       .  A
C3238      C3246   1.381       .  A
C3238      C3249   1.405       .  A
C3239      C3240   1.380       .  A
C3239      H3251   1.076       .  S
C3240      H3252   1.082       .  S
C3241      C3242   1.374       .  A
C3241      H3253   1.082       .  S
C3242      H3254   1.082       .  S
C3243      C3244   1.385       .  A
C3243      H3255   1.077       .  S
C3244      H3256   1.080       .  S
C3245      C3246   1.387       .  A
C3245      H3257   1.082       .  S
C3246      H3258   1.082       .  S
C3247      C3281   1.530       .  S
C3248      C3467   1.512       .  S
C3249      C3453   1.494       .  S
C3250      C3540   1.531       .  S
N3261      C3266   1.351       .  A
N3261      C3265   1.347       .  A
N3261      H3293   1.043       .  S
N3262      C3269   1.349       .  A
N3262      C3270   1.351       .  A
N3263      C3268   1.355       .  A
N3263      C3267   1.359       .  A
N3263      H3294   1.040       .  S
N3264      C3271   1.353       .  A
N3264      C3272   1.347       .  A
C3265      C3273   1.382       .  A
C3265      C3281   1.404       .  A
C3266      C3282   1.419       .  A
C3266      C3274   1.390       .  A
C3267      C3275   1.384       .  A
C3267      C3284   1.424       .  A
C3268      C3283   1.432       .  A
C3268      C3276   1.392       .  A
C3269      C3281   1.403       .  A
C3269      C3277   1.384       .  A
C3270      C3284   1.412       .  A
C3270      C3278   1.386       .  A
C3271      C3279   1.382       .  A
C3271      C3282   1.414       .  A
C3272      C3280   1.391       .  A
C3272      C3283   1.423       .  A
C3273      C3274   1.387       .  A
C3273      H3285   1.082       .  S
C3274      H3286   1.082       .  S
C3275      C3276   1.387       .  A
C3275      H3287   1.082       .  S
C3276      H3288   1.082       .  S
C3277      C3278   1.381       .  A
C3277      H3289   1.082       .  S
C3278      H3290   1.082       .  S
C3279      C3280   1.376       .  A
C3279      H3291   1.082       .  S
C3280      H3292   1.081       .  S
C3282      C3568   1.506       .  S
C3283      C3428   1.500       .  S
C3284      C3439   1.527       .  S
O3295     Zr3307   2.442       .  S
O3295      C3297   1.288       .  A
O3296      C3297   1.289       .  A
C3297      C3694   1.490       .  S
O3298      C3300   1.292       .  A
O3299     Zr3334   2.412       .  S
O3299      C3300   1.285       .  A
C3300      C3649   1.496       .  S
O3301     Zr3310   2.444       .  S
O3301      C3303   1.289       .  A
O3302     Zr3333   2.403       .  S
O3302      C3303   1.283       .  A
C3303      C3666   1.490       .  S
O3304      C3306   1.285       .  A
O3305      C3306   1.284       .  A
C3306      C3677   1.465       .  S
Zr3307     O3308   2.435       .  S
Zr3307     O3309   2.435       .  S
Zr3307     O3339   2.364       .  S
O3308      H3351   0.990       .  S
O3309      H3350   0.990       .  S
O3309      H3354   0.989   1_565  S
Zr3310     O3311   2.436       .  S
Zr3310     O3312   2.429       .  S
Zr3310     O3313   2.365       .  S
Zr3310     O3338   2.365       .  S
O3311      H3352   0.990   1_565  S
O3311      H3355   0.990   1_565  S
O3312      H3345   0.989   1_565  S
O3313     Zr3333   2.390       .  S
O3314     Zr3334   2.395       .  S
O3314      H3341   0.966       .  S
O3315      C3317   1.284       .  A
O3316      C3317   1.298       .  A
C3317      C3442   1.511       .  S
O3318     Zr3330   2.410       .  S
O3318      C3320   1.281       .  A
O3319     Zr3333   2.456       .  S
O3319      C3320   1.291       .  A
C3320      C3456   1.490       .  S
O3321      C3323   1.283       .  A
O3322     Zr3334   2.468       .  S
O3322      C3323   1.293       .  A
C3323      C3425   1.505       .  S
O3324     Zr3327   2.419       .  S
O3324      C3326   1.282       .  A
O3325      C3326   1.296       .  A
C3326      C3470   1.486       .  S
Zr3327     O3328   2.433   1_565  S
Zr3327     O3329   2.435       .  S
Zr3327     O3339   2.381       .  S
O3328      H3348   0.990       .  S
O3328      H3353   0.990   1_545  S
O3329      H3349   0.990       .  S
Zr3330     O3331   2.436   1_565  S
Zr3330     O3332   2.444       .  S
Zr3330     O3336   2.359       .  S
Zr3330     O3338   2.377       .  S
O3331      H3347   0.990       .  S
O3332      H3346   0.990       .  S
O3332      H3356   0.990   1_565  S
Zr3333     O3336   2.385       .  S
Zr3333     O3338   2.388       .  S
Zr3334     O3335   2.392       .  S
Zr3334     O3340   2.377       .  S
O3335      H3343   0.966       .  S
O3338      H3342   0.965       .  S
O3339      H3344   0.966       .  S
N3357      C3362   1.350       .  A
N3357      C3361   1.350       .  A
N3357      H3389   1.038       .  S
N3358      C3365   1.354       .  A
N3358      C3366   1.350       .  A
N3359      C3364   1.360       .  A
N3359      C3363   1.357       .  A
N3359      H3390   1.032       .  S
N3360      C3367   1.349       .  A
N3360      C3368   1.348       .  A
C3361      C3369   1.386       .  A
C3361      C3377   1.409       .  A
C3362      C3378   1.409       .  A
C3362      C3370   1.387       .  A
C3363      C3371   1.390       .  A
C3363      C3380   1.435       .  A
C3364      C3379   1.427       .  A
C3364      C3372   1.385       .  A
C3365      C3377   1.413       .  A
C3365      C3373   1.380       .  A
C3366      C3380   1.428       .  A
C3366      C3374   1.393       .  A
C3367      C3375   1.386       .  A
C3367      C3378   1.410       .  A
C3368      C3376   1.388       .  A
C3368      C3379   1.414       .  A
C3369      C3370   1.373       .  A
C3369      H3381   1.083       .  S
C3370      H3382   1.082       .  S
C3371      C3372   1.380       .  A
C3371      H3383   1.082       .  S
C3372      H3384   1.082       .  S
C3373      C3374   1.371       .  A
C3373      H3385   1.082       .  S
C3374      H3386   1.081       .  S
C3375      C3376   1.370       .  A
C3375      H3387   1.082       .  S
C3376      H3388   1.082       .  S
C3377      C3484   1.499       .  S
C3378      C3498   1.484       .  S
C3379      C3624   1.505       .  S
C3380      C3638   1.508       .  S
N3391      C3396   1.347       .  A
N3391      C3395   1.348       .  A
N3391      H3423   1.045       .  S
N3392      C3399   1.350       .  A
N3392      C3400   1.346       .  A
N3393      C3398   1.364       .  A
N3393      C3397   1.365       .  A
N3393      H3424   1.037       .  S
N3394      C3401   1.355       .  A
N3394      C3402   1.352       .  A
C3395      C3403   1.383       .  A
C3395      C3411   1.396       .  A
C3396      C3412   1.404       .  A
C3396      C3404   1.385       .  A
C3397      C3405   1.387       .  A
C3397      C3414   1.438       .  A
C3398      C3413   1.436       .  A
C3398      C3406   1.386       .  A
C3399      C3411   1.399       .  A
C3399      C3407   1.380       .  A
C3400      C3414   1.419       .  A
C3400      C3408   1.394       .  A
C3401      C3409   1.384       .  A
C3401      C3412   1.418       .  A
C3402      C3410   1.389       .  A
C3402      C3413   1.422       .  A
C3403      C3404   1.374       .  A
C3403      H3415   1.080       .  S
C3404      H3416   1.083       .  S
C3405      C3406   1.381       .  A
C3405      H3417   1.082       .  S
C3406      H3418   1.082       .  S
C3407      C3408   1.370       .  A
C3407      H3419   1.083       .  S
C3408      H3420   1.081       .  S
C3409      C3410   1.372       .  A
C3409      H3421   1.082       .  S
C3410      H3422   1.081       .  S
C3411      C3526   1.486       .  S
C3412      C3512   1.532       .  S
C3413      C3607   1.521       .  S
C3414      C3596   1.513       .  S
C3425      C3426   1.422       .  A
C3425      C3430   1.416       .  A
C3426      C3427   1.402       .  A
C3426      C3431   1.453       .  S
C3427      C3428   1.407       .  A
C3427      C3434   1.452       .  S
C3428      C3429   1.416       .  A
C3429      C3430   1.422       .  A
C3429      C3432   1.449       .  S
C3430      C3433   1.446       .  S
C3431      N3438   1.157       .  T
C3432      N3437   1.157       .  T
C3433      N3435   1.157       .  T
C3434      N3436   1.157       .  T
C3439      C3440   1.420       .  A
C3439      C3444   1.424       .  A
C3440      C3441   1.416       .  A
C3440      C3445   1.447       .  S
C3441      C3442   1.419       .  A
C3441      C3448   1.453       .  S
C3442      C3443   1.410       .  A
C3443      C3444   1.421       .  A
C3443      C3446   1.446       .  S
C3444      C3447   1.448       .  S
C3445      N3452   1.156       .  T
C3446      N3451   1.156       .  T
C3447      N3449   1.156       .  T
C3448      N3450   1.157       .  T
C3453      C3454   1.412       .  A
C3453      C3458   1.414       .  A
C3454      C3455   1.416       .  A
C3454      C3459   1.450       .  S
C3455      C3456   1.416       .  A
C3455      C3462   1.447       .  S
C3456      C3457   1.415       .  A
C3457      C3458   1.405       .  A
C3457      C3460   1.454       .  S
C3458      C3461   1.453       .  S
C3459      N3466   1.157       .  T
C3460      N3465   1.157       .  T
C3461      N3463   1.157       .  T
C3462      N3464   1.156       .  T
C3467      C3468   1.419       .  A
C3467      C3472   1.418       .  A
C3468      C3469   1.411       .  A
C3468      C3473   1.449       .  S
C3469      C3470   1.408       .  A
C3469      C3476   1.451       .  S
C3470      C3471   1.416       .  A
C3471      C3472   1.417       .  A
C3471      C3474   1.451       .  S
C3472      C3475   1.451       .  S
C3473      N3480   1.156       .  T
C3474      N3479   1.158       .  T
C3475      N3477   1.158       .  T
C3476      N3478   1.157       .  T
C3481      C3482   1.412       .  A
C3481      C3486   1.422       .  A
C3482      C3483   1.406       .  A
C3482      C3487   1.441       .  S
C3483      C3484   1.410       .  A
C3483      C3490   1.452       .  S
C3484      C3485   1.410       .  A
C3485      C3486   1.418       .  A
C3485      C3488   1.450       .  S
C3486      C3489   1.449       .  S
C3487      N3494   1.154       .  T
C3488      N3493   1.157       .  T
C3489      N3491   1.157       .  T
C3490      N3492   1.157       .  T
C3495      C3496   1.422       .  A
C3495      C3500   1.419       .  A
C3496      C3497   1.404       .  A
C3496      C3501   1.452       .  S
C3497      C3498   1.407       .  A
C3497      C3504   1.452       .  S
C3498      C3499   1.406       .  A
C3499      C3500   1.408       .  A
C3499      C3502   1.451       .  S
C3500      C3503   1.449       .  S
C3501      N3508   1.158       .  T
C3502      N3507   1.157       .  T
C3503      N3505   1.156       .  T
C3504      N3506   1.156       .  T
C3509      C3510   1.413       .  A
C3509      C3514   1.418       .  A
C3510      C3511   1.409       .  A
C3510      C3515   1.448       .  S
C3511      C3512   1.422       .  A
C3511      C3518   1.452       .  S
C3512      C3513   1.419       .  A
C3513      C3514   1.412       .  A
C3513      C3516   1.453       .  S
C3514      C3517   1.451       .  S
C3515      N3522   1.157   1_554  T
C3516      N3521   1.158       .  T
C3517      N3519   1.157       .  T
C3518      N3520   1.158       .  T
C3523      C3524   1.408       .  A
C3523      C3528   1.410       .  A
C3524      C3525   1.406       .  A
C3524      C3529   1.452       .  S
C3525      C3526   1.415       .  A
C3525      C3532   1.452       .  S
C3526      C3527   1.409       .  A
C3527      C3528   1.408       .  A
C3527      C3530   1.449       .  S
C3528      C3531   1.451       .  S
C3529      N3536   1.158       .  T
C3530      N3535   1.157       .  T
C3531      N3533   1.157       .  T
C3532      N3534   1.157       .  T
C3537      C3538   1.414       .  A
C3537      C3542   1.412       .  A
C3538      C3539   1.397       .  A
C3538      C3543   1.452       .  S
C3539      C3540   1.416       .  A
C3539      C3546   1.450       .  S
C3540      C3541   1.421       .  A
C3541      C3542   1.424       .  A
C3541      C3544   1.448       .  S
C3542      C3545   1.446       .  S
C3543      N3550   1.157       .  T
C3544      N3549   1.157       .  T
C3545      N3547   1.157       .  T
C3546      N3548   1.158       .  T
C3551      C3552   1.418       .  A
C3551      C3556   1.420       .  A
C3552      C3553   1.413       .  A
C3552      C3557   1.449       .  S
C3553      C3554   1.413       .  A
C3553      C3560   1.444       .  S
C3554      C3555   1.412       .  A
C3554      C3582   1.534       .  S
C3555      C3556   1.413       .  A
C3555      C3558   1.444       .  S
C3556      C3559   1.447       .  S
C3557      N3564   1.157       .  T
C3558      N3563   1.157       .  T
C3559      N3561   1.157       .  T
C3560      N3562   1.157       .  T
C3565      C3566   1.421       .  A
C3565      C3570   1.407       .  A
C3566      C3567   1.427       .  A
C3566      C3571   1.448       .  S
C3567      C3568   1.413       .  A
C3567      C3574   1.447       .  S
C3568      C3569   1.401       .  A
C3569      C3570   1.393       .  A
C3569      C3572   1.437       .  S
C3570      C3573   1.442       .  S
C3571      N3578   1.157       .  T
C3572      N3577   1.151       .  T
C3573      N3575   1.155       .  T
C3574      N3576   1.157       .  T
C3579      C3580   1.415       .  A
C3579      C3584   1.409       .  A
C3580      C3581   1.410       .  A
C3580      C3585   1.450       .  S
C3581      C3582   1.419       .  A
C3581      C3588   1.446       .  S
C3582      C3583   1.421       .  A
C3583      C3584   1.410       .  A
C3583      C3586   1.441       .  S
C3584      C3587   1.449       .  S
C3585      N3592   1.157       .  T
C3586      N3591   1.156       .  T
C3587      N3589   1.157       .  T
C3588      N3590   1.158       .  T
C3593      C3594   1.412       .  A
C3593      C3598   1.417       .  A
C3594      C3595   1.417       .  A
C3594      C3599   1.449       .  S
C3595      C3596   1.419       .  A
C3595      C3602   1.451       .  S
C3596      C3597   1.412       .  A
C3597      C3598   1.414       .  A
C3599      N3606   1.157       .  T
C3600      N3605   1.157       .  T
C3601      N3603   1.157       .  T
C3602      N3604   1.157       .  T
C3607      C3608   1.413       .  A
C3607      C3612   1.412       .  A
C3608      C3609   1.422       .  A
C3608      C3613   1.452       .  S
C3609      C3610   1.426       .  A
C3609      C3616   1.449       .  S
C3610      C3611   1.428       .  A
C3611      C3612   1.423       .  A
C3611      C3614   1.449       .  S
C3612      C3615   1.452       .  S
C3613      N3620   1.157       .  T
C3614      N3619   1.157       .  T
C3615      N3617   1.157       .  T
C3616      N3618   1.157       .  T
C3621      C3622   1.422       .  A
C3621      C3626   1.422       .  A
C3622      C3623   1.416       .  A
C3622      C3627   1.450       .  S
C3623      C3624   1.410       .  A
C3623      C3630   1.450       .  S
C3624      C3625   1.412       .  A
C3625      C3626   1.414       .  A
C3625      C3628   1.453       .  S
C3626      C3629   1.450       .  S
C3627      N3634   1.157       .  T
C3630      N3632   1.157       .  T
C3635      C3636   1.410       .  A
C3635      C3640   1.418       .  A
C3636      C3637   1.414       .  A
C3636      C3641   1.449       .  S
C3637      C3638   1.417       .  A
C3637      C3644   1.450       .  S
C3638      C3639   1.412       .  A
C3639      C3640   1.411       .  A
C3639      C3642   1.451       .  S
C3640      C3643   1.450       .  S
C3641      N3648   1.157       .  T
C3644      N3646   1.157       .  T
C3649      C3650   1.419       .  A
C3649      C3654   1.420       .  A
C3650      C3651   1.414       .  A
C3650      C3655   1.449       .  S
C3651      C3652   1.408       .  A
C3651      C3658   1.450       .  S
C3652      C3653   1.407       .  A
C3653      C3654   1.406       .  A
C3653      C3656   1.452       .  S
C3654      C3657   1.449       .  S
C3655      N3662   1.157       .  T
C3658      N3660   1.157       .  T
C3663      C3664   1.408       .  A
C3663      C3668   1.410       .  A
C3664      C3665   1.408       .  A
C3664      C3669   1.451       .  S
C3665      C3666   1.419       .  A
C3665      C3672   1.451       .  S
C3666      C3667   1.420       .  A
C3667      C3668   1.404       .  A
C3667      C3670   1.450       .  S
C3668      C3671   1.452       .  S
C3669      N3676   1.157       .  T
C3670      N3675   1.157       .  T
C3671      N3673   1.156       .  T
C3672      N3674   1.157       .  T
C3677      C3678   1.413       .  A
C3677      C3682   1.409       .  A
C3678      C3679   1.402       .  A
C3678      C3683   1.452       .  S
C3679      C3680   1.407       .  A
C3679      C3686   1.452       .  S
C3680      C3681   1.411       .  A
C3681      C3682   1.406       .  A
C3681      C3684   1.451       .  S
C3682      C3685   1.450       .  S
C3684      N3689   1.157       .  T
C3685      N3687   1.157       .  T
C3691      C3692   1.416       .  A
C3691      C3696   1.412       .  A
C3692      C3693   1.412       .  A
C3692      C3697   1.452       .  S
C3693      C3694   1.411       .  A
C3693      C3700   1.448       .  S
C3694      C3695   1.416       .  A
C3695      C3696   1.413       .  A
C3695      C3698   1.451   1_655  S
C3696      C3699   1.450       .  S
C3697      N3704   1.157       .  T
C3699      N3701   1.157   1_655  T
C3700      N3702   1.156       .  T
C3705      C3706   1.419       .  A
C3705      C3710   1.421       .  A
C3706      C3707   1.414       .  A
C3706      C3711   1.450       .  S
C3707      C3708   1.409       .  A
C3707      C3714   1.450       .  S
C3708      C3709   1.407       .  A
C3709      C3710   1.408       .  A
C3709      C3712   1.451       .  S
C3710      C3713   1.448       .  S
C3711      N3718   1.157       .  T
C3712      N3717   1.156       .  T
C3713      N3715   1.157       .  T
C3714      N3716   1.157       .  T
C3719      C3720   1.421       .  A
C3719      C3724   1.422       .  A
C3720      C3721   1.411       .  A
C3720      C3725   1.449       .  S
C3721      C3722   1.407       .  A
C3721      C3728   1.452       .  S
C3722      C3723   1.409       .  A
C3723      C3724   1.408       .  A
C3723      C3726   1.452       .  S
C3724      C3727   1.450       .  S
C3725      N3732   1.157       .  T
C3726      N3731   1.156       .  T
C3727      N3729   1.157       .  T
C3728      N3730   1.157       .  T
C3733      C3734   1.409       .  A
C3733      C3738   1.414       .  A
C3734      C3735   1.408       .  A
C3734      C3739   1.450       .  S
C3735      C3736   1.413       .  A
C3735      C3742   1.451       .  S
C3736      C3737   1.407       .  A
C3737      C3738   1.404       .  A
C3737      C3740   1.452       .  S
C3738      C3741   1.452       .  S
C3739      N3746   1.157       .  T
C3740      N3745   1.157       .  T
C3741      N3743   1.157       .  T
C3742      N3744   1.157       .  T
C3747      C3748   1.409       .  A
C3747      C3752   1.412       .  A
C3748      C3749   1.412       .  A
C3748      C3753   1.451       .  S
C3749      C3750   1.415       .  A
C3749      C3756   1.450       .  S
C3750      C3751   1.411       .  A
C3751      C3752   1.407       .  A
C3751      C3754   1.450       .  S
C3752      C3755   1.453       .  S
C3753      N3760   1.157       .  T
C3754      N3759   1.157       .  T
C3755      N3757   1.157       .  T
C3756      N3758   1.157       .  T
C3761      C3762   1.438       .  A
C3761      C3766   1.413       .  A
C3762      C3763   1.423       .  A
C3762      C3767   1.451       .  S
C3763      C3764   1.412       .  A
C3763      C3770   1.453       .  S
C3764      C3765   1.427       .  A
C3765      C3766   1.421       .  A
C3765      C3768   1.450       .  S
C3766      C3769   1.449       .  S
C3767      N3774   1.157       .  T
C3768      N3773   1.157       .  T
C3769      N3771   1.158       .  T
C3770      N3772   1.158       .  T
C3775      C3776   1.419       .  A
C3775      C3780   1.428       .  A
C3776      C3777   1.420       .  A
C3776      C3781   1.450       .  S
C3777      C3778   1.419       .  A
C3777      C3784   1.451       .  S
C3778      C3779   1.406       .  A
C3779      C3780   1.414       .  A
C3779      C3782   1.452       .  S
C3780      C3783   1.451       .  S
C3781      N3788   1.158       .  T
C3782      N3787   1.157       .  T
C3783      N3785   1.157       .  T
C3784      N3786   1.157       .  T
C3789      C3790   1.407       .  A
C3789      C3794   1.404       .  A
C3790      C3791   1.411       .  A
C3790      C3795   1.451       .  S
C3791      C3792   1.420       .  A
C3791      C3798   1.450       .  S
C3792      C3793   1.424       .  A
C3793      C3794   1.405       .  A
C3793      C3796   1.449       .  S
C3794      C3797   1.454       .  S
C3795      N3802   1.157       .  T
C3796      N3801   1.157       .  T
C3797      N3799   1.157       .  T
C3798      N3800   1.157       .  T
C3803      C3804   1.421       .  A
C3803      C3808   1.421       .  A
C3804      C3805   1.408       .  A
C3804      C3809   1.450       .  S
C3805      C3806   1.409       .  A
C3805      C3812   1.451       .  S
C3806      C3807   1.410       .  A
C3807      C3808   1.414       .  A
C3807      C3810   1.451       .  S
C3808      C3811   1.451       .  S
C3809      N3816   1.157       .  T
C3810      N3815   1.157       .  T
C3811      N3813   1.157       .  T
C3812      N3814   1.157       .  T
C3817      C3818   1.431       .  A
C3817      C3822   1.417       .  A
C3818      C3819   1.423       .  A
C3818      C3823   1.450       .  S
C3819      C3820   1.411       .  A
C3819      C3826   1.451       .  S
C3820      C3821   1.420       .  A
C3821      C3822   1.424       .  A
C3821      C3824   1.451       .  S
C3822      C3825   1.443       .  S
C3823      N3830   1.157       .  T
C3824      N3829   1.157       .  T
C3825      N3827   1.155       .  T
C3826      N3828   1.157       .  T
C3831      C3832   1.426       .  A
C3831      C3836   1.411       .  A
C3832      C3833   1.424       .  A
C3832      C3837   1.451       .  S
C3833      C3834   1.413       .  A
C3833      C3840   1.450       .  S
C3834      C3835   1.420       .  A
C3835      C3836   1.418       .  A
C3836      C3839   1.445       .  S
C3837      N3844   1.157       .  T
C3838      N3843   1.157       .  T
C3840      N3842   1.157       .  T
C3845      C3846   1.412       .  A
C3845      C3850   1.407       .  A
C3846      C3847   1.403       .  A
C3846      C3851   1.452       .  S
C3847      C3848   1.409       .  A
C3847      C3854   1.451       .  S
C3848      C3849   1.414       .  A
C3849      C3850   1.405       .  A
C3849      C3852   1.451       .  S
C3850      C3853   1.452       .  S
C3851      N3858   1.157       .  T
C3852      N3857   1.157       .  T
C3853      N3855   1.158       .  T
C3854      N3856   1.157       .  T
C3859      C3860   1.410       .  A
C3859      C3864   1.414       .  A
C3860      C3861   1.407       .  A
C3860      C3865   1.451       .  S
C3861      C3862   1.412       .  A
C3861      C3868   1.452       .  S
C3862      C3863   1.411       .  A
C3863      C3864   1.413       .  A
C3863      C3866   1.451       .  S
C3864      C3867   1.450       .  S
C3865      N3872   1.157       .  T
C3866      N3871   1.158       .  T
C3867      N3869   1.157       .  T
C3868      N3870   1.157       .  T
