geometry optimzed in LAMMPS
_audit_creation_date              2020-11-30 
_audit_creation_method            'lammps2cif' 
_symmetry_space_group_name_H-M    'P1' 
_symmetry_Int_Tables_number       1 
_symmetry_cell_setting            triclinic 
loop_ 
_symmetry_equiv_pos_as_xyz 
  x,y,z 
_cell_length_a                    37.08296208 
_cell_length_b                    36.93785013309659 
_cell_length_c                    36.92168384380755 
_cell_angle_alpha                 89.47898188263615 
_cell_angle_beta                  89.83917166318179 
_cell_angle_gamma                 90.27723409769615 
loop_ 
_atom_site_label 
_atom_site_type_symbol 
_atom_site_fract_x 
_atom_site_fract_y 
_atom_site_fract_z 
_atom_site_charge 
Zn1        Zn  0.47303587  0.48170384  0.03420100     1.49700
Zn2        Zn  0.52592170  0.48002629  0.96666958     1.49400
Zn3        Zn  0.46195698  0.53775609  0.96776213     1.49100
Zn4        Zn  0.52907737  0.54779584  0.02050350     1.49500
O5          O  0.49747765  0.51193066  0.99742393    -1.81300
O6          O  0.48017599  0.42771723  0.02548309    -0.71900
O7          O  0.51310787  0.48691019  0.91445871    -0.71800
O8          O  0.41150147  0.52406419  0.98314658    -0.71300
O9          O  0.51569687  0.42761341  0.97695209    -0.72000
O10         O  0.41902566  0.49186840  0.03382827    -0.71600
O11         O  0.46906145  0.52763261  0.91421033    -0.72100
O12         O  0.51477726  0.59953871  0.00756231    -0.71500
O13         O  0.57926640  0.48945165  0.97268679    -0.72300
O14         O  0.46535519  0.59184614  0.97457856    -0.71700
O15         O  0.58114015  0.53983311  0.00535803    -0.72100
O16         O  0.52602669  0.54231865  0.07541650    -0.72100
O17         O  0.49206611  0.49301192  0.08388507    -0.71800
C18         C  0.49741336  0.41086207  0.00098177     0.79900
C19         C  0.49037003  0.50638901  0.89767033     0.80400
C20         C  0.39866588  0.50774398  0.01092941     0.79400
C21         C  0.48800108  0.61240621  0.99015422     0.79800
C22         C  0.59688239  0.51490258  0.98773992     0.80900
C23         C  0.51149548  0.51860918  0.09619713     0.80000
Zn24       Zn  0.47623518  0.02812032  0.53607207     1.49700
Zn25       Zn  0.54302007  0.97173098  0.53689284     1.49400
Zn26       Zn  0.48261732  0.96574316  0.47432387     1.49100
Zn27       Zn  0.53812476  0.03102934  0.47434749     1.49500
O28         O  0.50952162  0.99915356  0.50578572    -1.81300
O29         O  0.48639571  0.01852001  0.59053409    -0.71900
O30         O  0.53760748  0.91797753  0.52899094    -0.71800
O31         O  0.42888822  0.97149222  0.48228578    -0.71300
O32         O  0.53308812  0.98087563  0.58975843    -0.72000
O33         O  0.42346517  0.01425877  0.52411935    -0.71600
O34         O  0.49620711  0.91379357  0.48571748    -0.72100
O35         O  0.52940236  0.02238308  0.42166829    -0.71500
O36         O  0.59536098  0.98486991  0.52680231    -0.72300
O37         O  0.49222229  0.97520053  0.42045628    -0.71700
O38         O  0.59108636  0.02546774  0.48236515    -0.72100
O39         O  0.52672652  0.08252804  0.48326989    -0.72100
O40         O  0.48376552  0.08280828  0.52545094    -0.71800
C41         C  0.51006611  0.99944089  0.60710893     0.79900
C42         C  0.51821241  0.89910880  0.50786810     0.80400
C43         C  0.40937682  0.99154982  0.50218766     0.79400
C44         C  0.51115755  0.99926891  0.40416643     0.79800
C45         C  0.60992467  0.00654052  0.50397022     0.80900
C46         C  0.50514078  0.09948423  0.50363915     0.80000
Zn47       Zn  0.97042371  0.51297416  0.47028910     1.49700
Zn48       Zn  0.02971370  0.51515583  0.53198868     1.49400
Zn49       Zn  0.97209943  0.45047676  0.53075607     1.49100
Zn50       Zn  0.03404464  0.45367813  0.47078221     1.49500
O51         O  0.00171537  0.48302673  0.50075236    -1.81300
O52         O  0.97685196  0.56635371  0.48041629    -0.71900
O53         O  0.01375505  0.50976571  0.58417345    -0.71800
O54         O  0.92027945  0.45115429  0.51444874    -0.71300
O55         O  0.02372304  0.56836574  0.51776307    -0.72000
O56         O  0.91801464  0.49977938  0.47851024    -0.71600
O57         O  0.97200625  0.46636750  0.58299959    -0.72100
O58         O  0.02760571  0.39970798  0.48157973    -0.71500
O59         O  0.08231645  0.50278227  0.52931046    -0.72300
O60         O  0.98956558  0.39873024  0.52825699    -0.71700
O61         O  0.08656667  0.46649407  0.48158160    -0.72100
O62         O  0.02338371  0.46179166  0.41748902    -0.72100
O63         O  0.98160738  0.50493511  0.41720609    -0.71800
C64         C  0.00005889  0.58421924  0.49836241     0.79900
C65         C  0.99034219  0.48984012  0.60011061     0.80400
C66         C  0.90256423  0.47373102  0.49541498     0.79400
C67         C  0.01014341  0.38246362  0.50612011     0.79800
C68         C  0.10104803  0.48469222  0.50700761     0.80900
C69         C  0.00238998  0.48324301  0.40055119     0.80000
Zn70       Zn  0.02038538  0.03321498  0.02953513     1.49700
Zn71       Zn  0.02334557  0.97302797  0.96862464     1.49400
Zn72       Zn  0.96227081  0.96938583  0.03011218     1.49100
Zn73       Zn  0.95881686  0.03083266  0.96709513     1.49500
O74         O  0.99092164  0.00173751  0.99878509    -1.81300
O75         O  0.07323193  0.03099584  0.01469634    -0.71900
O76         O  0.01081103  0.91953980  0.97205880    -0.71800
O77         O  0.97800373  0.97296889  0.08278944    -0.71300
O78         O  0.07602031  0.98131651  0.98122606    -0.72000
O79         O  0.01735695  0.01850627  0.08294490    -0.71600
O80         O  0.96890261  0.91673993  0.01530918    -0.72100
O81         O  0.90556934  0.01944954  0.97834760    -0.71500
O82         O  0.01885443  0.98812125  0.91633906    -0.72300
O83         O  0.90897264  0.98273112  0.02647504    -0.71700
O84         O  0.96986245  0.02257321  0.91319742    -0.72100
O85         O  0.96644043  0.08484611  0.97735328    -0.72100
O86         O  0.00377389  0.08487849  0.02458236    -0.71800
C87         C  0.09138670  0.00753098  0.99740439     0.79900
C88         C  0.98902673  0.90139317  0.99196754     0.80400
C89         C  0.99967407  0.99372457  0.09961644     0.79400
C90         C  0.89050344  0.00150948  0.00407796     0.79800
C91         C  0.99617967  0.00636602  0.89805988     0.80900
C92         C  0.98374942  0.10154282  0.00203981     0.80000
C93         C  0.75160096  0.50782767  0.96249523     0.83000
N94         N  0.76876691  0.48891082  0.98920847    -0.75300
C95         C  0.74922530  0.46819109  0.01294731     0.85500
N96         N  0.71278184  0.46673863  0.00991148    -0.75200
C97         C  0.69558225  0.48611487  0.98397102     0.85600
N98         N  0.71504398  0.50647737  0.96015073    -0.76900
C99         C  0.24359234  0.52666066  0.02672709     0.83000
N100        N  0.22360531  0.51094133  0.00032904    -0.75300
C101        C  0.23983396  0.49634296  0.97095051     0.85500
N102        N  0.27622569  0.49794231  0.96771768    -0.75200
C103        C  0.29659246  0.51253182  0.99439768     0.85600
N104        N  0.28024077  0.52683026  0.02406701    -0.76900
C105        C  0.97268331  0.47978962  0.24725520     0.83000
N106        N  0.97461134  0.48126600  0.28397757    -0.75300
C107        C  0.99203846  0.50902585  0.30038883     0.85500
N108        N  0.00751663  0.53550739  0.27992042    -0.75200
C109        C  0.00705208  0.53356444  0.24322817     0.85600
N110        N  0.98950257  0.50573872  0.22681102    -0.76900
C111        C  0.96329356  0.25511619  0.01592735     0.83000
N112        N  0.96166938  0.21876374  0.01072672    -0.75300
C113        C  0.97879688  0.20349879  0.98213826     0.85500
N114        N  0.99763369  0.22486177  0.95865365    -0.75200
C115        C  0.00052717  0.26105313  0.96437210     0.85600
N116        N  0.98325288  0.27619113  0.99298260    -0.76900
C117        C  0.02967411  0.49134017  0.75818821     0.83000
N118        N  0.00029304  0.50589749  0.77420286    -0.75300
C119        C  0.97377365  0.52096362  0.75390305     0.85500
N120        N  0.97626970  0.52040358  0.71709409    -0.75200
C121        C  0.00602109  0.50613021  0.70096389     0.85600
N122        N  0.03284496  0.49221362  0.72164147    -0.76900
Zn123      Zn  0.17115940  0.33429308  0.83336067     1.49700
Zn124      Zn  0.14778533  0.35517868  0.91415525     1.49400
Zn125      Zn  0.15077781  0.41502077  0.84970961     1.49100
Zn126      Zn  0.08946673  0.35165044  0.85047054     1.49500
O127        O  0.13960079  0.36424550  0.86217760    -1.81300
O128        O  0.20363981  0.30552419  0.86481017    -0.71900
O129        O  0.16364693  0.40120320  0.93856427    -0.71800
O130        O  0.18865689  0.42060350  0.81020554    -0.71300
O131        O  0.18798034  0.31817100  0.92153319    -0.72000
O132        O  0.20225397  0.36326766  0.79945601    -0.71600
O133        O  0.16990747  0.44131569  0.89347584    -0.72100
O134        O  0.06347385  0.39624950  0.83342087    -0.71500
O135        O  0.10261715  0.33579230  0.93915084    -0.72300
O136        O  0.10607445  0.43913280  0.83080000    -0.71700
O137        O  0.06352193  0.33090094  0.89387168    -0.72100
O138        O  0.08586438  0.31317166  0.81140497    -0.72100
O139        O  0.14356077  0.29948858  0.80317447    -0.71800
C140        C  0.20741950  0.30137724  0.89872137     0.79900
C141        C  0.17292662  0.43238478  0.92675479     0.80400
C142        C  0.20644139  0.39685301  0.79315606     0.79400
C143        C  0.07377590  0.42837320  0.82584799     0.79800
C144        C  0.07184775  0.32642694  0.92702673     0.80900
C145        C  0.11040083  0.29448158  0.79644888     0.80000
C146        C  0.97117761  0.74511339  0.98142955     0.83000
N147        N  0.97015267  0.78191348  0.98302779    -0.75300
C148        C  0.98277497  0.79934566  0.01279361     0.85500
N149        N  0.99708355  0.77983756  0.04055001    -0.75200
C150        C  0.99978910  0.74327424  0.03846334     0.85600
N151        N  0.98644147  0.72591835  0.00900485    -0.76900
Zn152      Zn  0.90571318  0.65346604  0.84899015     1.49700
Zn153      Zn  0.84270767  0.59232813  0.84083521     1.49400
Zn154      Zn  0.83804835  0.65293421  0.90314305     1.49100
Zn155      Zn  0.82778580  0.67388716  0.81973516     1.49500
O156        O  0.85368400  0.64296271  0.85341796    -1.81300
O157        O  0.93168078  0.60779890  0.83470015    -0.71900
O158        O  0.82445563  0.56463942  0.88521935    -0.71800
O159        O  0.87922365  0.67279453  0.93284136    -0.71300
O160        O  0.88761145  0.56915883  0.82019842    -0.72000
O161        O  0.92629341  0.67497439  0.89535455    -0.71600
O162        O  0.82134055  0.60686639  0.92787517    -0.72900
O163        O  0.79561729  0.70789473  0.84604642    -0.71500
O164        O  0.80370855  0.58794062  0.80257533    -0.72300
O165        O  0.79749244  0.69032112  0.90385710    -0.71700
O166        O  0.79542426  0.64549415  0.78705879    -0.72100
O167        O  0.86157960  0.70254885  0.78830133    -0.72100
O168        O  0.91648521  0.68944674  0.80838042    -0.71800
C169        C  0.92085759  0.57810821  0.82101570     0.79900
C170        C  0.81708987  0.57435754  0.91748708     0.80400
C171        C  0.91206732  0.68067993  0.92626635     0.79400
C172        C  0.78501593  0.71044989  0.87865231     0.79800
C173        C  0.78819538  0.61208210  0.78355240     0.80900
C174        C  0.89562965  0.70611153  0.78670500     0.80000
Zn175      Zn  0.88078873  0.38694724  0.11561024     1.49700
Zn176      Zn  0.85808165  0.30497945  0.13625649     1.49400
Zn177      Zn  0.86055917  0.36459633  0.19791599     1.49100
Zn178      Zn  0.79892374  0.36699991  0.13770244     1.49500
O179        O  0.84976328  0.35611346  0.14677451    -1.81300
O180        O  0.91259408  0.35550529  0.08347411    -0.71900
O181        O  0.87609175  0.27792033  0.17978636    -0.71800
O182        O  0.89862113  0.40306769  0.20305442    -0.71300
O183        O  0.89440164  0.29944660  0.09674205    -0.72000
O184        O  0.91283277  0.41957713  0.14663413    -0.71600
O185        O  0.87775627  0.31922152  0.22316327    -0.72100
O186        O  0.77367351  0.38434206  0.18270657    -0.71500
O187        O  0.81236080  0.27910066  0.12233277    -0.72300
O188        O  0.81588927  0.37953681  0.22516768    -0.71700
O189        O  0.77099357  0.32238252  0.12363809    -0.72100
O190        O  0.79409336  0.40353919  0.09757577    -0.72100
O191        O  0.85019713  0.41839379  0.08174921    -0.71800
C192        C  0.91417733  0.32137431  0.07868779     0.79900
C193        C  0.88180381  0.28691957  0.21236582     0.80400
C194        C  0.91684271  0.42246401  0.18083166     0.79400
C195        C  0.78363433  0.38600288  0.21557233     0.79800
C196        C  0.77991207  0.28954020  0.11932759     0.80900
C197        C  0.81617183  0.42134405  0.07769726     0.80000
Zn198      Zn  0.14672511  0.65845225  0.09507150     1.49700
Zn199      Zn  0.09011441  0.65948179  0.16133740     1.49400
Zn200      Zn  0.15297320  0.59755795  0.15725354     1.49100
Zn201      Zn  0.17267470  0.67890992  0.17457262     1.49500
O202        O  0.14025272  0.64841977  0.14702623    -1.81300
O203        O  0.09986863  0.67371997  0.07216482    -0.71900
O204        O  0.06644021  0.61325736  0.17997924    -0.71800
O205        O  0.17470909  0.57372956  0.11295352    -0.71300
O206        O  0.06135477  0.67896901  0.11817366    -0.72000
O207        O  0.16482949  0.61434124  0.06924491    -0.71600
O208        O  0.10802526  0.57027403  0.17320401    -0.72100
O209        O  0.20652893  0.65019231  0.20550603    -0.71500
O210        O  0.08780057  0.69763359  0.20119242    -0.72300
O211        O  0.19078917  0.59281164  0.19696364    -0.71700
O212        O  0.14580802  0.71148511  0.20769620    -0.72100
O213        O  0.20232221  0.71018715  0.14202430    -0.72100
O214        O  0.18400934  0.69840294  0.08602453    -0.71800
C215        C  0.06895784  0.68205249  0.08453367     0.79900
C216        C  0.07643806  0.58027284  0.18239887     0.80400
C217        C  0.17647524  0.58371553  0.07987856     0.79400
C218        C  0.21022170  0.61666224  0.21225757     0.79800
C219        C  0.11290490  0.71591886  0.21595824     0.80900
C220        C  0.20402962  0.71552024  0.10807249     0.80000
C221        C  0.51752937  0.25285121  0.04203376     0.83000
N222        N  0.49459078  0.23649622  0.01848350    -0.75300
C223        C  0.47188718  0.25686646  0.99792205     0.85500
N224        N  0.47234140  0.29350339  0.00102639    -0.75200
C225        C  0.49473350  0.30986668  0.02492664     0.85600
N226        N  0.51735457  0.28945420  0.04527366    -0.76900
C227        C  0.52768386  0.77167918  0.96520456     0.83000
N228        N  0.49906501  0.78872822  0.98068713    -0.75300
C229        C  0.47309180  0.76874693  0.99816640     0.85500
N230        N  0.47580504  0.73200898  0.99978987    -0.75200
C231        C  0.50481913  0.71515994  0.98518711     0.85600
N232        N  0.53056335  0.73516451  0.96827015    -0.76900
C233        C  0.48176196  0.95825318  0.24501620     0.83000
N234        N  0.48121266  0.95543837  0.28172877    -0.75300
C235        C  0.49785485  0.98073749  0.30235176     0.85500
N236        N  0.51549505  0.00882797  0.28588089    -0.75200
C237        C  0.51692196  0.01137495  0.24915664     0.85600
N238        N  0.49976625  0.98617416  0.22878432    -0.76900
C239        C  0.25008460  0.96476042  0.00612438     0.83000
N240        N  0.21366137  0.96094395  0.00470606    -0.75300
C241        C  0.19293892  0.98750503  0.99013842     0.85500
N242        N  0.20900998  0.01752456  0.97568579    -0.75200
C243        C  0.24556201  0.02114259  0.97593936     0.85600
N244        N  0.26599909  0.99488665  0.99167398    -0.76900
C245        C  0.72863455  0.99523774  0.96632500     0.83000
N246        N  0.76516712  0.99343101  0.96225735    -0.75300
C247        C  0.78759245  0.00809437  0.98736383     0.85500
N248        N  0.77318006  0.02498490  0.01666807    -0.75200
C249        C  0.73672402  0.02790151  0.02024726     0.85600
N250        N  0.71472325  0.01281831  0.99514303    -0.76900
Zn251      Zn  0.62344237  0.89840303  0.86341593     1.49700
Zn252      Zn  0.64390739  0.86837127  0.78409785     1.49400
Zn253      Zn  0.70268642  0.86498048  0.84513908     1.49100
Zn254      Zn  0.63694572  0.81202180  0.84944311     1.49500
O255        O  0.65114401  0.86139348  0.83605352    -1.81300
O256        O  0.59242139  0.92920956  0.82715149    -0.71900
O257        O  0.68927837  0.88144480  0.75752060    -0.71800
O258        O  0.71266892  0.90603221  0.87679786    -0.71300
O259        O  0.60786434  0.90631895  0.77377754    -0.72000
O260        O  0.66013413  0.93119728  0.89145765    -0.71600
O261        O  0.73074847  0.87429400  0.80017103    -0.72100
O262        O  0.67817953  0.78195492  0.86916883    -0.71500
O263        O  0.62657453  0.82311619  0.76092427    -0.72300
O264        O  0.72437450  0.82024400  0.86717590    -0.71700
O265        O  0.61858031  0.78411342  0.80648891    -0.72100
O266        O  0.59912327  0.81410092  0.88744280    -0.72100
O267        O  0.58869075  0.87205413  0.89972196    -0.71800
C268        C  0.58956000  0.92822875  0.79252353     0.79900
C269        C  0.72189847  0.88085697  0.76768754     0.80400
C270        C  0.69469537  0.92992440  0.89324100     0.79400
C271        C  0.71134360  0.78911631  0.87407793     0.79800
C272        C  0.61772926  0.79205573  0.77293238     0.80900
C273        C  0.58262324  0.83827340  0.90534179     0.80000
C274        C  0.46855429  0.03957486  0.76409800     0.83000
N275        N  0.46818235  0.03832733  0.72740792    -0.75300
C276        C  0.49124248  0.01672545  0.70911727     0.85500
N277        N  0.51513546  0.99593416  0.72813661    -0.75200
C278        C  0.51565583  0.99697737  0.76522063     0.85600
N279        N  0.49229421  0.01888080  0.78289391    -0.76900
Zn280      Zn  0.38059895  0.12683791  0.90157056     1.49700
Zn281      Zn  0.36088459  0.15228216  0.81994447     1.49400
Zn282      Zn  0.29965699  0.15022190  0.88060113     1.49100
Zn283      Zn  0.36171406  0.21038200  0.88234791     1.49500
O284        O  0.35092415  0.15972306  0.87138038    -1.81300
O285        O  0.41311389  0.09600834  0.86930155    -0.71900
O286        O  0.31666692  0.13636006  0.79288829    -0.71800
O287        O  0.29261974  0.10962512  0.91629044    -0.71300
O288        O  0.39753811  0.11390312  0.81387866    -0.72000
O289        O  0.34803112  0.09192005  0.93069338    -0.71600
O290        O  0.27394683  0.13509879  0.83523086    -0.72100
O291        O  0.31720455  0.23697208  0.89878099    -0.71500
O292        O  0.37970404  0.19738299  0.79502207    -0.72300
O293        O  0.27424043  0.19470674  0.89847094    -0.71700
O294        O  0.38110700  0.23808039  0.83892454    -0.72100
O295        O  0.39862012  0.21311523  0.92133503    -0.72100
O296        O  0.41256559  0.15632977  0.93604582    -0.71800
C297        C  0.41607295  0.09396963  0.83493152     0.79900
C298        C  0.28422482  0.13088574  0.80270465     0.80400
C299        C  0.31381094  0.08850662  0.93329353     0.79400
C300        C  0.28460327  0.22712829  0.90349036     0.79800
C301        C  0.38609114  0.22923634  0.80610904     0.80900
C302        C  0.41652173  0.19044191  0.94011638     0.80000
Zn303      Zn  0.34422920  0.90363065  0.14559183     1.49700
Zn304      Zn  0.34188501  0.84126258  0.08454796     1.49400
Zn305      Zn  0.40320500  0.84086719  0.14710466     1.49100
Zn306      Zn  0.32193290  0.82279109  0.16672438     1.49500
O307        O  0.35286632  0.85217218  0.13563306    -1.81300
O308        O  0.32591406  0.92938931  0.10105710    -0.71900
O309        O  0.38765587  0.82452253  0.05847596    -0.71800
O310        O  0.42734993  0.88301725  0.17231558    -0.71300
O311        O  0.32163961  0.88616674  0.05953402    -0.72000
O312        O  0.38931288  0.92854555  0.16301894    -0.71600
O313        O  0.43018650  0.82989454  0.10076968    -0.72100
O314        O  0.35016270  0.78624353  0.19516822    -0.71500
O315        O  0.30265111  0.80265554  0.08019217    -0.72300
O316        O  0.40747419  0.79717058  0.18087767    -0.71700
O317        O  0.28591044  0.79516910  0.13770609    -0.72100
O318        O  0.29510077  0.85323631  0.20215790    -0.72100
O319        O  0.30761498  0.91012036  0.18615782    -0.71800
C320        C  0.31720797  0.91884097  0.06952764     0.79900
C321        C  0.42059048  0.82266640  0.06847818     0.80400
C322        C  0.41901061  0.91631371  0.17504778     0.79400
C323        C  0.38350662  0.77913411  0.19806936     0.79800
C324        C  0.28215404  0.78853720  0.10423243     0.80900
C325        C  0.29151873  0.88711497  0.20641306     0.80000
Zn326      Zn  0.66786409  0.16901280  0.18540094     1.49700
Zn327      Zn  0.64558158  0.15858987  0.10340714     1.49400
Zn328      Zn  0.65145698  0.08951430  0.15671461     1.49100
Zn329      Zn  0.58703639  0.14677199  0.16724955     1.49500
O330        O  0.63788196  0.14082017  0.15305114    -1.81300
O331        O  0.69953574  0.20392876  0.15828209    -0.71900
O332        O  0.66273957  0.11808486  0.07116301    -0.71800
O333        O  0.69037896  0.08138237  0.19431024    -0.71300
O334        O  0.68389005  0.19799081  0.10059749    -0.72000
O335        O  0.70032693  0.13711145  0.21442914    -0.71600
O336        O  0.67209379  0.07195551  0.10923708    -0.72100
O337        O  0.56643076  0.09957535  0.18644102    -0.71500
O338        O  0.59953322  0.17968602  0.08381776    -0.72300
O339        O  0.60822799  0.05891020  0.17211410    -0.71700
O340        O  0.55753124  0.16454553  0.12464399    -0.72100
O341        O  0.58104717  0.18442763  0.20661727    -0.72100
O342        O  0.63801706  0.19831351  0.21924097    -0.71800
C343        C  0.70285948  0.21267023  0.12511230     0.79900
C344        C  0.67398607  0.08615826  0.07770695     0.80400
C345        C  0.70686819  0.10338937  0.21480062     0.79400
C346        C  0.57750515  0.06698627  0.18530457     0.79800
C347        C  0.56685733  0.17904165  0.09459816     0.80900
C348        C  0.60439790  0.20217630  0.22442552     0.80000
C349        C  0.48890699  0.51653009  0.24931327     0.83000
N350        N  0.49312688  0.51653023  0.21278202    -0.75300
C351        C  0.51760822  0.49457866  0.19690181     0.85500
N352        N  0.53825562  0.47261192  0.21784277    -0.75200
C353        C  0.53454257  0.47254261  0.25449480     0.85600
N354        N  0.50963704  0.49438076  0.27026461    -0.76900
C355        C  0.74762818  0.46488445  0.48198457     0.83000
N356        N  0.72903936  0.49219550  0.49773433    -0.75300
C357        C  0.74684625  0.52134171  0.51105168     0.85500
N358        N  0.78322976  0.52346475  0.50796503    -0.75200
C359        C  0.80207560  0.49588751  0.49317095     0.85600
N360        N  0.78422454  0.46643152  0.48036641    -0.76900
Zn361      Zn  0.67076237  0.31481969  0.33047459     1.49700
Zn362      Zn  0.59069283  0.33349846  0.35699217     1.49400
Zn363      Zn  0.65803036  0.33522457  0.41290893     1.49100
Zn364      Zn  0.65167171  0.39538391  0.34934095     1.49500
O365        O  0.64248635  0.34470410  0.36272700    -1.81300
O366        O  0.63893519  0.28413018  0.30031372    -0.71900
O367        O  0.56951944  0.31600184  0.40492790    -0.71800
O368        O  0.69498419  0.29422697  0.41600880    -0.71300
O369        O  0.58297173  0.29367931  0.31980373    -0.72000
O370        O  0.70290705  0.28125720  0.35787098    -0.71600
O371        O  0.61479449  0.32109620  0.44422747    -0.72100
O372        O  0.66788450  0.42334651  0.39298607    -0.71500
O373        O  0.56334023  0.37771840  0.33804240    -0.72300
O374        O  0.68090976  0.38033829  0.43361896    -0.71700
O375        O  0.60729142  0.41784286  0.32781103    -0.72100
O376        O  0.69102835  0.40113174  0.31133268    -0.72100
O377        O  0.70235110  0.34402417  0.29715509    -0.71800
C378        C  0.60532590  0.27768135  0.29924416     0.79900
C379        C  0.58209584  0.31318183  0.43697844     0.80400
C380        C  0.70993458  0.27589215  0.39109924     0.79400
C381        C  0.68105156  0.41336678  0.42327209     0.79800
C382        C  0.57436352  0.40817973  0.32563631     0.80900
C383        C  0.70789545  0.37772867  0.29289392     0.80000
C384        C  0.47161411  0.25935052  0.53696159     0.83000
N385        N  0.49513483  0.27506899  0.51309666    -0.75300
C386        C  0.51518784  0.25393675  0.49076643     0.85500
N387        N  0.51182829  0.21729998  0.49283175    -0.75200
C388        C  0.48902326  0.20152233  0.51728592     0.85600
N389        N  0.46855034  0.22275655  0.53870476    -0.76900
C390        C  0.48926558  0.74190282  0.46209043     0.83000
N391        N  0.48835644  0.77857949  0.46211204    -0.75300
C392        C  0.50607781  0.79771782  0.48763510     0.85500
N393        N  0.52493395  0.77982270  0.51367692    -0.75200
C394        C  0.52657173  0.74302820  0.51364571     0.85600
N395        N  0.50859009  0.72400015  0.48784035    -0.76900
Zn396      Zn  0.36973980  0.62468229  0.29674446     1.49700
Zn397      Zn  0.37565970  0.68865809  0.35385644     1.49400
Zn398      Zn  0.31216157  0.63123293  0.36065735     1.49100
Zn399      Zn  0.39339724  0.60684773  0.37936831     1.49500
O400        O  0.36294101  0.63766196  0.34776876    -1.81300
O401        O  0.38480029  0.66808666  0.26643496    -0.71900
O402        O  0.33374512  0.71786735  0.37282821    -0.71800
O403        O  0.28262730  0.61786611  0.31709459    -0.71300
O404        O  0.38939310  0.71246919  0.30644333    -0.72000
O405        O  0.32305357  0.60813558  0.27368883    -0.71600
O406        O  0.28980194  0.67725280  0.37968676    -0.72100
O407        O  0.36219222  0.57429168  0.41211238    -0.71500
O408        O  0.41623064  0.69340805  0.38903373    -0.72300
O409        O  0.30663715  0.59142263  0.39744377    -0.71700
O410        O  0.42646183  0.63801098  0.41070042    -0.72100
O411        O  0.42544387  0.57455135  0.34857892    -0.72100
O412        O  0.40801321  0.58655533  0.29208845    -0.71800
C413        C  0.39078754  0.70105238  0.27410402     0.79900
C414        C  0.30152236  0.70960389  0.38152789     0.80400
C415        C  0.29057282  0.60924347  0.28481407     0.79400
C416        C  0.32803807  0.57131343  0.41546008     0.79800
C417        C  0.43294824  0.67196753  0.41028894     0.80900
C418        C  0.42804586  0.56963746  0.31452215     0.80000
C419        C  0.25578128  0.47809147  0.52034323     0.83000
N420        N  0.21938405  0.47523611  0.51699410    -0.75300
C421        C  0.20243914  0.48977283  0.48775205     0.85500
N422        N  0.22194586  0.50813314  0.46248093    -0.75200
C423        C  0.25814823  0.51224025  0.46609675     0.85600
N424        N  0.27521649  0.49678371  0.49490709    -0.76900
C425        C  0.50951434  0.54872527  0.73892376     0.83000
N426        N  0.50759404  0.55311740  0.77537955    -0.75300
C427        C  0.49049096  0.52800447  0.79641561     0.85500
N428        N  0.47474673  0.49881943  0.78074660    -0.75200
C429        C  0.47532047  0.49512719  0.74426332     0.85600
N430        N  0.49302536  0.51988636  0.72338903    -0.76900
Zn431      Zn  0.34819064  0.34927157  0.60518048     1.49700
Zn432      Zn  0.33797910  0.41596685  0.65915148     1.49400
Zn433      Zn  0.32464793  0.33549871  0.68667971     1.49100
Zn434      Zn  0.40500182  0.35990516  0.66998427     1.49500
O435        O  0.35423524  0.36548493  0.65513641    -1.81300
O436        O  0.33178158  0.39023977  0.57265035    -0.71900
O437        O  0.29840945  0.42159203  0.69743973    -0.71800
O438        O  0.29581970  0.29996893  0.65896130    -0.71300
O439        O  0.31849524  0.43440421  0.61105055    -0.72000
O440        O  0.31147742  0.30857790  0.60136454    -0.71600
O441        O  0.29051949  0.36462001  0.71576693    -0.72100
O442        O  0.41084046  0.32338708  0.71160400    -0.71500
O443        O  0.38022259  0.44732016  0.67414029    -0.72300
O444        O  0.35391500  0.30703309  0.72143948    -0.71700
O445        O  0.42405838  0.40791890  0.68652245    -0.72100
O446        O  0.43593457  0.34209346  0.62823649    -0.72100
O447        O  0.39480322  0.33002670  0.58617411    -0.71800
C448        C  0.31920094  0.42154030  0.57911126     0.79900
C449        C  0.28280150  0.39796087  0.71743018     0.80400
C450        C  0.29333185  0.29205485  0.62572603     0.79400
C451        C  0.38721329  0.30467977  0.72860072     0.79800
C452        C  0.41176391  0.44007396  0.68570187     0.80900
C453        C  0.42719292  0.32941127  0.59749617     0.80000
Zn454      Zn  0.68237415  0.67402071  0.66379776     1.49700
Zn455      Zn  0.60106423  0.65887846  0.64338451     1.49400
Zn456      Zn  0.66416929  0.65044714  0.58341026     1.49100
Zn457      Zn  0.65765497  0.59286480  0.64939456     1.49500
O458        O  0.65112664  0.64379555  0.63476447    -1.81300
O459        O  0.65467350  0.70862117  0.69407882    -0.71900
O460        O  0.57873146  0.67727057  0.59687235    -0.71800
O461        O  0.70520680  0.68695958  0.57642504    -0.71300
O462        O  0.59725126  0.69861126  0.68029106    -0.72000
O463        O  0.71706284  0.70205869  0.63331765    -0.71600
O464        O  0.62082625  0.66770746  0.55480616    -0.72100
O465        O  0.67484538  0.56315972  0.60722981    -0.71500
O466        O  0.57187092  0.61748563  0.66432523    -0.72300
O467        O  0.68188969  0.60355702  0.56259805    -0.71700
O468        O  0.61066472  0.57166577  0.66710042    -0.72100
O469        O  0.69475890  0.58755482  0.69006520    -0.72100
O470        O  0.71157752  0.64475645  0.69801379    -0.71800
C471        C  0.62135653  0.71509953  0.69817260     0.79900
C472        C  0.58957715  0.67855317  0.56406852     0.80400
C473        C  0.72343044  0.70455621  0.59961352     0.79400
C474        C  0.68436021  0.57139234  0.57503943     0.79800
C475        C  0.57944880  0.58480268  0.67238828     0.80900
C476        C  0.71381918  0.61138739  0.70592922     0.80000
C477        C  0.24906894  0.02449175  0.53525441     0.83000
N478        N  0.23265493  0.00472127  0.50883051    -0.75300
C479        C  0.25316080  0.98532711  0.48502172     0.85500
N480        N  0.28989489  0.98613509  0.48779446    -0.75200
C481        C  0.30622244  0.00534372  0.51452403     0.85600
N482        N  0.28556744  0.02432916  0.53781991    -0.76900
C483        C  0.76276380  0.01581556  0.48628951     0.83000
N484        N  0.72665934  0.01587702  0.49236410    -0.75300
C485        C  0.71168901  0.99302684  0.51727340     0.85500
N486        N  0.73329675  0.97096863  0.53700202    -0.75200
C487        C  0.76943067  0.97062058  0.53104509     0.85600
N488        N  0.78420563  0.99286575  0.50543691    -0.76900
C489        C  0.02337472  0.22560930  0.51146407     0.83000
N490        N  0.00273361  0.20918789  0.48625044    -0.75300
C491        C  0.98815686  0.22867873  0.45872669     0.85500
N492        N  0.99435022  0.26483457  0.45627412    -0.75200
C493        C  0.01391895  0.28188290  0.48205826     0.85600
N494        N  0.02847605  0.26221537  0.50970412    -0.76900
C495        C  0.99992710  0.03323453  0.25702812     0.83000
N496        N  0.00166997  0.03579409  0.22040118    -0.75300
C497        C  0.01859305  0.01001631  0.20081460     0.85500
N498        N  0.03500625  0.98189261  0.21827397    -0.75200
C499        C  0.03498343  0.98007515  0.25524514     0.85600
N500        N  0.01682160  0.00551592  0.27446119    -0.76900
C501        C  0.04865319  0.74266773  0.48058270     0.83000
N502        N  0.01968649  0.75899284  0.49574745    -0.75300
C503        C  0.99322071  0.73903366  0.51180450     0.85500
N504        N  0.99543528  0.70235197  0.51216201    -0.75200
C505        C  0.02467435  0.68563136  0.49769003     0.85600
N506        N  0.05150519  0.70594270  0.48232593    -0.76900
Zn507      Zn  0.10679183  0.84999639  0.34723884     1.49700
Zn508      Zn  0.18563252  0.82696996  0.32503626     1.49400
Zn509      Zn  0.17205388  0.90892593  0.35024740     1.49100
Zn510      Zn  0.17041471  0.84242571  0.40779368     1.49500
O511        O  0.15853312  0.85751087  0.35787068    -1.81300
O512        O  0.09825712  0.81114896  0.30918075    -0.71900
O513        O  0.21513004  0.85694917  0.29148365    -0.71800
O514        O  0.12815551  0.93724744  0.33192836    -0.71300
O515        O  0.15411274  0.79544967  0.29479376    -0.72000
O516        O  0.08425151  0.89619784  0.32658373    -0.71600
O517        O  0.21031195  0.91381602  0.31031702    -0.72100
O518        O  0.18502516  0.88654959  0.43791320    -0.71500
O519        O  0.21970253  0.79423529  0.35098942    -0.72300
O520        O  0.19164533  0.93122194  0.39736379    -0.71700
O521        O  0.21175717  0.80560924  0.40942090    -0.72100
O522        O  0.12679373  0.81736388  0.43015328    -0.72100
O523        O  0.08155821  0.83094950  0.39265098    -0.71800
C524        C  0.12027076  0.79207098  0.29115108     0.79900
C525        C  0.22328991  0.89025156  0.28895136     0.80400
C526        C  0.09624650  0.92842130  0.32230600     0.79400
C527        C  0.19397215  0.91910403  0.42984965     0.79800
C528        C  0.22751408  0.78869433  0.38398722     0.80900
C529        C  0.09348498  0.81619216  0.42163109     0.80000
Zn530      Zn  0.84139211  0.14197973  0.40165112     1.49700
Zn531      Zn  0.82055604  0.16394084  0.32197801     1.49400
Zn532      Zn  0.90252357  0.14807284  0.33822048     1.49100
Zn533      Zn  0.84575688  0.08232708  0.33868807     1.49500
O534        O  0.85273511  0.13382844  0.35029307    -1.81300
O535        O  0.80305963  0.18078493  0.40938869    -0.71900
O536        O  0.84734021  0.19859683  0.28987673    -0.71800
O537        O  0.92640706  0.16650013  0.38287035    -0.71300
O538        O  0.78823677  0.19414568  0.35266084    -0.72000
O539        O  0.88631457  0.15830649  0.42741406    -0.71600
O540        O  0.90526824  0.18868828  0.30117885    -0.72100
O541        O  0.89217047  0.06018009  0.32042871    -0.71500
O542        O  0.78938255  0.13343075  0.29120302    -0.72300
O543        O  0.93139770  0.10593593  0.31876913    -0.71700
O544        O  0.80627948  0.07631608  0.30065823    -0.72100
O545        O  0.83038636  0.05372271  0.38310846    -0.72100
O546        O  0.82306232  0.09598639  0.42508138    -0.71800
C547        C  0.78443696  0.19854048  0.38648797     0.79900
C548        C  0.88046660  0.20576905  0.28474758     0.80400
C549        C  0.91723000  0.16845869  0.41604421     0.79400
C550        C  0.92353670  0.07274880  0.31360739     0.79800
C551        C  0.78634949  0.09979704  0.28516730     0.80900
C552        C  0.82109965  0.06319805  0.41483224     0.80000
C553        C  0.01803801  0.02303031  0.74438222     0.83000
N554        N  0.01111717  0.02343277  0.78056858    -0.75300
C555        C  0.98324260  0.00397111  0.79484591     0.85500
N556        N  0.96225230  0.98387959  0.77260523    -0.75200
C557        C  0.96971234  0.98210325  0.73659476     0.85600
N558        N  0.99752877  0.00188943  0.72238390    -0.76900
Zn559      Zn  0.86158525  0.88979933  0.64465151     1.49700
Zn560      Zn  0.84225712  0.80831895  0.66364882     1.49400
Zn561      Zn  0.86439551  0.82815388  0.58312891     1.49100
Zn562      Zn  0.92404787  0.83116505  0.64776008     1.49500
O563        O  0.87336921  0.83936810  0.63452589    -1.81300
O564        O  0.82128263  0.89440797  0.68037281    -0.71900
O565        O  0.81149871  0.77584616  0.63376019    -0.71800
O566        O  0.84837210  0.87331089  0.55580106    -0.71300
O567        O  0.80798186  0.83702076  0.69316516    -0.72000
O568        O  0.84349022  0.91390215  0.59982101    -0.71600
O569        O  0.82398115  0.79109314  0.57676401    -0.72100
O570        O  0.95084888  0.81290950  0.60411649    -0.71500
O571        O  0.87070297  0.77826716  0.69780668    -0.72300
O572        O  0.90942494  0.80722471  0.56071962    -0.71700
O573        O  0.92818132  0.79340138  0.68850843    -0.72100
O574        O  0.94837887  0.87729927  0.66546293    -0.72100
O575        O  0.90370399  0.91720680  0.66541640    -0.71800
C576        C  0.80260381  0.87064570  0.69691830     0.79900
C577        C  0.80613639  0.77270224  0.60001538     0.80400
C578        C  0.83932649  0.90452642  0.56701246     0.79400
C579        C  0.94157392  0.80359262  0.57232215     0.79800
C580        C  0.90393170  0.77520908  0.70522665     0.80900
C581        C  0.93625953  0.90876340  0.67220596     0.80000
Zn582      Zn  0.11497494  0.12408559  0.61947080     1.49700
Zn583      Zn  0.13265916  0.14001304  0.70401398     1.49400
Zn584      Zn  0.19647281  0.13815170  0.64505308     1.49100
Zn585      Zn  0.14143235  0.20296636  0.64739734     1.49500
O586        O  0.14603931  0.15082321  0.65367772    -1.81300
O587        O  0.08083888  0.09047147  0.64849879    -0.71900
O588        O  0.17675419  0.12688123  0.73285519    -0.71800
O589        O  0.20075135  0.09827000  0.60869535    -0.71300
O590        O  0.09670723  0.09929457  0.70594145    -0.72000
O591        O  0.14569622  0.09129180  0.58607173    -0.71600
O592        O  0.22066496  0.12409881  0.69170593    -0.72100
O593        O  0.18772741  0.22662120  0.63291540    -0.71500
O594        O  0.11161868  0.18327541  0.73018805    -0.72300
O595        O  0.22566214  0.18078013  0.62640898    -0.71700
O596        O  0.12366905  0.22821291  0.69168234    -0.72100
O597        O  0.10684841  0.21377392  0.60879254    -0.72100
O598        O  0.08606807  0.16098358  0.58860130    -0.71800
C599        C  0.07776759  0.08304152  0.68228133     0.79900
C600        C  0.20963255  0.12224276  0.72429772     0.80400
C601        C  0.17922730  0.08328683  0.58644983     0.79400
C602        C  0.21857347  0.21437843  0.62484877     0.79800
C603        C  0.11209758  0.21680827  0.72207986     0.80900
C604        C  0.08677366  0.19568732  0.58789419     0.80000
C605        C  0.04670260  0.04719597  0.72992275    -0.13600
C606        C  0.05117671  0.05526519  0.69448004    -0.28800
H607        H  0.06338845  0.06074708  0.74982946     0.15400
H608        H  0.03425130  0.04239401  0.67434842     0.16000
C609        C  0.94664425  0.95931577  0.71357382    -0.13600
C610        C  0.96013144  0.93553502  0.68978250    -0.28800
H611        H  0.91797817  0.95877945  0.71970956     0.15400
H612        H  0.98913003  0.93311029  0.68646906     0.16000
C613        C  0.06776863  0.79645226  0.44524051    -0.13600
C614        C  0.07618593  0.76460683  0.46117472    -0.28800
H615        H  0.04018579  0.80615684  0.44621384     0.15400
H616        H  0.10279747  0.75312044  0.45722677     0.16000
C617        C  0.96336833  0.75708990  0.53067825    -0.13600
C618        C  0.96920360  0.78793605  0.54875094    -0.28800
H619        H  0.93755591  0.74321755  0.53302870     0.15400
H620        H  0.99616545  0.79951891  0.54971250     0.16000
C621        C  0.95095096  0.04786618  0.29900893    -0.13600
C622        C  0.97762770  0.05932977  0.27698399    -0.28800
H623        H  0.94695976  0.01898245  0.30337944     0.15400
H624        H  0.97939611  0.08774470  0.26931026     0.16000
C625        C  0.05492803  0.95072089  0.27426635    -0.13600
C626        C  0.07301445  0.95648791  0.30540899    -0.28800
H627        H  0.05739959  0.92476039  0.26090153     0.15400
H628        H  0.07382650  0.98357017  0.31662187     0.16000
C629        C  0.06502385  0.21709863  0.56228928    -0.13600
C630        C  0.04144638  0.20290671  0.53905197    -0.28800
H631        H  0.06961338  0.24619597  0.56207892     0.15400
H632        H  0.03665290  0.17386023  0.53899660     0.16000
C633        C  0.94276530  0.18378217  0.44195263    -0.13600
C634        C  0.96487750  0.21100920  0.43218842    -0.28800
H635        H  0.94128911  0.17485097  0.47008412     0.15400
H636        H  0.96365350  0.22240664  0.40494402     0.16000
C637        C  0.79205561  0.94780256  0.55431721    -0.13600
C638        C  0.82097558  0.92976864  0.54223302    -0.28800
H639        H  0.78273883  0.94332723  0.58197228     0.15400
H640        H  0.82835367  0.93068696  0.51374351     0.16000
C641        C  0.77827978  0.04251525  0.46086078    -0.13600
C642        C  0.80715927  0.03554781  0.44021229    -0.28800
H643        H  0.76442606  0.06822597  0.45776137     0.15400
H644        H  0.81906770  0.00872628  0.44033252     0.16000
C645        C  0.19407481  0.05653135  0.56022802    -0.13600
C646        C  0.22930563  0.04753538  0.56133766    -0.28800
H647        H  0.17662436  0.04529696  0.53956186     0.15400
H648        H  0.24607653  0.05947009  0.58221275     0.16000
C649        C  0.23644279  0.96469858  0.45486456    -0.13600
C650        C  0.20739754  0.94299367  0.45926399    -0.28800
H651        H  0.25067088  0.96451258  0.42909140     0.15400
H652        H  0.19551566  0.93994684  0.48606180     0.16000
C653        C  0.75267283  0.72779892  0.58859475    -0.10500
C654        C  0.77811240  0.74827603  0.58888888    -0.12000
C655        C  0.24664263  0.23979439  0.61636745    -0.10500
C656        C  0.26901058  0.26349250  0.61637279    -0.12000
C657        C  0.53162003  0.57376900  0.71693533    -0.13600
C658        C  0.55197296  0.56156903  0.68954444    -0.28800
H659        H  0.53482697  0.60147584  0.72608809     0.15400
H660        H  0.55192333  0.53290661  0.68315002     0.16000
C661        C  0.45618370  0.46468129  0.72772373    -0.13600
C662        C  0.43431404  0.46977037  0.69927642    -0.28800
H663        H  0.45694684  0.43853092  0.74142386     0.15400
H664        H  0.43049482  0.49681250  0.68813053     0.16000
C665        C  0.30458917  0.44287832  0.54860165    -0.13600
C666        C  0.27348917  0.46102386  0.55181918    -0.28800
H667        H  0.31726132  0.44041066  0.52219444     0.15400
H668        H  0.25876316  0.45994383  0.57727653     0.16000
C669        C  0.27680642  0.73807594  0.39075212    -0.10500
C670        C  0.25463338  0.76194900  0.39173557    -0.12000
C671        C  0.31253972  0.54412712  0.44094863    -0.13600
C672        C  0.27717788  0.53578398  0.43971091    -0.28800
H673        H  0.32992734  0.53143096  0.46093118     0.15400
H674        H  0.26048682  0.54815100  0.41890129     0.16000
C675        C  0.54721651  0.72436848  0.54223810    -0.13600
C676        C  0.56583188  0.69395569  0.53601245    -0.28800
H677        H  0.54980291  0.73771170  0.56821707     0.15400
H678        H  0.56653461  0.68258059  0.50899628     0.16000
C679        C  0.46743127  0.72293119  0.43485403    -0.13600
C680        C  0.45974260  0.68729602  0.43567947    -0.28800
H681        H  0.45499474  0.74004828  0.41435158     0.15400
H682        H  0.47168661  0.66978899  0.45612474     0.16000
C683        C  0.44601840  0.28095302  0.55797706    -0.13600
C684        C  0.45470989  0.31169497  0.57499139    -0.28800
H685        H  0.41921788  0.26942687  0.56181278     0.15400
H686        H  0.48229987  0.32169870  0.57483083     0.16000
C687        C  0.73588905  0.24828146  0.39963271    -0.10500
C688        C  0.75841279  0.22480238  0.39814906    -0.12000
C689        C  0.53790981  0.27002168  0.46182268    -0.13600
C690        C  0.55840671  0.29969166  0.46647062    -0.28800
H691        H  0.53956786  0.25555387  0.43638147     0.15400
H692        H  0.56001758  0.31220012  0.49292784     0.16000
C693        C  0.72731598  0.55030790  0.52961088    -0.13600
C694        C  0.69974175  0.54297799  0.55214807    -0.28800
H695        H  0.73836200  0.57760338  0.52804788     0.15400
H696        H  0.69124496  0.51510179  0.55680564     0.16000
C697        C  0.72827779  0.43499471  0.46434901    -0.13600
C698        C  0.69747843  0.44111618  0.44630939    -0.28800
H699        H  0.74143971  0.40885541  0.46243697     0.15400
H700        H  0.68653677  0.46834149  0.44493630     0.16000
C701        C  0.46148642  0.54065732  0.26500257    -0.13600
C702        C  0.45535432  0.54404095  0.30072628    -0.28800
H703        H  0.44587063  0.55674510  0.24592884     0.15400
H704        H  0.47112039  0.52850489  0.32010866     0.16000
C705        C  0.55903562  0.45001503  0.27645466    -0.13600
C706        C  0.54875815  0.43237963  0.30682462    -0.28800
H707        H  0.58597928  0.44568102  0.26571743     0.15400
H708        H  0.52088396  0.43332596  0.31584941     0.16000
C709        C  0.73446492  0.09074858  0.23879779    -0.10500
C710        C  0.75897654  0.08924117  0.26007150    -0.12000
C711        C  0.59345843  0.25101322  0.27391661    -0.10500
C712        C  0.59343328  0.22788171  0.25111478    -0.12000
C713        C  0.26852985  0.89889875  0.23529838    -0.10500
C714        C  0.24801306  0.90030252  0.26063349    -0.12000
C715        C  0.39371185  0.75033732  0.22235054    -0.10500
C716        C  0.39602709  0.72689712  0.24521372    -0.12000
C717        C  0.25805940  0.12132867  0.77592018    -0.10500
C718        C  0.23568739  0.11819603  0.75256805    -0.12000
C719        C  0.39720528  0.27958667  0.75668754    -0.10500
C720        C  0.39632531  0.25663672  0.78013741    -0.12000
C721        C  0.44338417  0.06407505  0.78251566    -0.13600
C722        C  0.44152721  0.06796077  0.81873321    -0.28800
H723        H  0.42577850  0.07990165  0.76512469     0.15400
H724        H  0.45873716  0.05209610  0.83646627     0.16000
C725        C  0.74984150  0.88489470  0.74145598    -0.10500
C726        C  0.77431490  0.88158019  0.72048661    -0.12000
C727        C  0.60996368  0.76441694  0.74724654    -0.10500
C728        C  0.61133790  0.74157861  0.72429469    -0.12000
C729        C  0.56474965  0.95213948  0.77197959    -0.13600
C730        C  0.54102080  0.97471685  0.78708766    -0.28800
H731        H  0.56558657  0.95013725  0.74259677     0.15400
H732        H  0.53972768  0.97667448  0.81644526     0.16000
C733        C  0.72092288  0.04747017  0.05111794    -0.13600
C734        C  0.68954416  0.06533240  0.04773526    -0.28800
H735        H  0.73597485  0.04883444  0.07627350     0.15400
H736        H  0.67640163  0.06703691  0.02151953     0.16000
C737        C  0.70376405  0.97613811  0.94139467    -0.13600
C738        C  0.71644812  0.95554266  0.91464788    -0.28800
H739        H  0.67497094  0.97666258  0.94694689     0.15400
H740        H  0.74542413  0.95461323  0.91012243     0.16000
C741        C  0.30056747  0.94539355  0.04473587    -0.13600
C742        C  0.27158453  0.93677004  0.02480817    -0.28800
H743        H  0.30891482  0.97354171  0.04675787     0.15400
H744        H  0.26083132  0.90936296  0.02605029     0.16000
C745        C  0.26231519  0.05293243  0.95768945    -0.13600
C746        C  0.29827943  0.05854545  0.95552436    -0.28800
H747        H  0.24416127  0.07166298  0.94423328     0.15400
H748        H  0.31665026  0.03992716  0.96880991     0.16000
C749        C  0.53697140  0.04156666  0.23186791    -0.13600
C750        C  0.55461049  0.03768459  0.20027442    -0.28800
H751        H  0.53975902  0.06662340  0.24681234     0.15400
H752        H  0.55502210  0.01150978  0.18711630     0.16000
C753        C  0.44364202  0.94155469  0.19338902    -0.13600
C754        C  0.46172676  0.93164694  0.22330496    -0.28800
H755        H  0.44363881  0.96979429  0.18481787     0.15400
H756        H  0.45852085  0.90435144  0.23415742     0.16000
C757        C  0.55554812  0.79065198  0.94334781    -0.13600
C758        C  0.55563015  0.82575867  0.93278911    -0.28800
H759        H  0.57676368  0.77313982  0.93331127     0.15400
H760        H  0.53543835  0.84435752  0.94287158     0.16000
C761        C  0.44284140  0.78624414  0.01725068    -0.13600
C762        C  0.44891311  0.81127248  0.04271554    -0.28800
H763        H  0.41617036  0.77422623  0.01486605     0.15400
H764        H  0.47643396  0.82001663  0.04786655     0.16000
C765        C  0.53934022  0.19723170  0.07251558    -0.13600
C766        C  0.54438533  0.23187140  0.06247018    -0.28800
H767        H  0.51388570  0.18360643  0.06733841     0.15400
H768        H  0.56859898  0.24603145  0.07112844     0.16000
C769        C  0.44686365  0.24037848  0.97171596    -0.13600
C770        C  0.44252146  0.20442961  0.96711421    -0.28800
H771        H  0.43102852  0.25914004  0.95556806     0.15400
H772        H  0.45801760  0.18531622  0.98315931     0.16000
C773        C  0.10747707  0.76575800  0.26568071    -0.10500
C774        C  0.10503356  0.74258315  0.24294348    -0.12000
C775        C  0.25398869  0.76376266  0.09435520    -0.10500
C776        C  0.23000173  0.74161746  0.09536064    -0.12000
C777        C  0.26177454  0.60381837  0.25943475    -0.10500
C778        C  0.23752468  0.60617705  0.23780271    -0.12000
C779        C  0.88985878  0.25902828  0.23824286    -0.10500
C780        C  0.88935282  0.23438035  0.25980431    -0.12000
C781        C  0.75216099  0.26295619  0.11390050    -0.10500
C782        C  0.72903351  0.23995142  0.11574751    -0.12000
C783        C  0.73411848  0.38896476  0.26634601    -0.10500
C784        C  0.75690359  0.39172276  0.24309310    -0.12000
C785        C  0.91006247  0.72974182  0.75915855    -0.10500
C786        C  0.91299716  0.75070320  0.73409587    -0.12000
C787        C  0.75785619  0.73698665  0.88617320    -0.10500
C788        C  0.73553130  0.76062648  0.88460834    -0.12000
C789        C  0.76157606  0.60214181  0.75719542    -0.10500
C790        C  0.73897146  0.60150976  0.73376183    -0.12000
C791        C  0.01967132  0.72339627  0.06699063    -0.13600
C792        C  0.04210212  0.69624662  0.05862562    -0.28800
H793        H  0.02015166  0.73460407  0.09409918     0.15400
H794        H  0.04442287  0.68782958  0.03058339     0.16000
C795        C  0.95446987  0.72625456  0.95046907    -0.13600
C796        C  0.93362494  0.69674959  0.95567289    -0.28800
H797        H  0.95588479  0.73890453  0.92383884     0.15400
H798        H  0.92891299  0.68677534  0.98305364     0.16000
C799        C  0.10144427  0.26673767  0.77099239    -0.10500
C800        C  0.10217600  0.24301354  0.74877150    -0.12000
C801        C  0.23457117  0.27644918  0.91049932    -0.10500
C802        C  0.25802330  0.25398775  0.91157801    -0.12000
C803        C  0.23232736  0.40739056  0.76599662    -0.10500
C804        C  0.25545798  0.40805248  0.74295839    -0.12000
C805        C  0.94369564  0.53977677  0.77189355    -0.13600
C806        C  0.94798631  0.55419257  0.80498696    -0.28800
H807        H  0.91915927  0.54485521  0.75669577     0.15400
H808        H  0.97388244  0.55229687  0.81854272     0.16000
C809        C  0.05708856  0.47282251  0.77994221    -0.13600
C810        C  0.04776868  0.45303439  0.80914351    -0.28800
H811        H  0.08442562  0.47148023  0.76930755     0.15400
H812        H  0.01963819  0.45095020  0.81733039     0.16000
C813        C  0.93902016  0.30686739  0.05100123    -0.13600
C814        C  0.94196829  0.27096139  0.04560383    -0.28800
H815        H  0.95403663  0.32587083  0.03413439     0.15400
H816        H  0.92677990  0.25219154  0.06260040     0.16000
C817        C  0.02293314  0.28317819  0.93965880    -0.13600
C818        C  0.04570870  0.30875377  0.95177739    -0.28800
H819        H  0.02380495  0.27541832  0.91135571     0.15400
H820        H  0.04765623  0.31391387  0.98063324     0.16000
C821        C  0.02630482  0.56151604  0.22203940    -0.13600
C822        C  0.05139042  0.55276243  0.19739495    -0.28800
H823        H  0.02399304  0.58939843  0.23083819     0.15400
H824        H  0.05641350  0.52443472  0.19157658     0.16000
C825        C  0.95029568  0.45111352  0.23076407    -0.13600
C826        C  0.94286218  0.44938558  0.19509631    -0.28800
H827        H  0.93790552  0.43170579  0.24925015     0.15400
H828        H  0.95520282  0.46849518  0.17629491     0.16000
C829        C  0.19254414  0.55978189  0.05269709    -0.13600
C830        C  0.22552912  0.54535622  0.05695671    -0.28800
H831        H  0.17906113  0.55793986  0.02669645     0.15400
H832        H  0.24065542  0.55046656  0.08155147     0.16000
C833        C  0.21861255  0.47720266  0.94340045    -0.13600
C834        C  0.18907739  0.45794685  0.95239908    -0.28800
H835        H  0.22994468  0.47496566  0.91631447     0.15400
H836        H  0.18003075  0.45692761  0.98043084     0.16000
C837        C  0.77178757  0.52951633  0.93542945    -0.13600
C838        C  0.80195354  0.54785529  0.94350325    -0.28800
H839        H  0.75937234  0.53365950  0.90908625     0.15400
H840        H  0.81236683  0.54724363  0.97096899     0.16000
C841        C  0.76615587  0.44668990  0.04215482    -0.13600
C842        C  0.80182549  0.44532009  0.04871880    -0.28800
H843        H  0.74786018  0.43068679  0.05890019     0.15400
H844        H  0.82055453  0.46094846  0.03213572     0.16000
C845        C  0.82731245  0.00660551  0.98171692    -0.13600
C846        C  0.85075835  0.00315715  0.00933610    -0.28800
H847        H  0.83737921  0.00656541  0.95407363     0.15400
H848        H  0.84040792  0.99987793  0.03671861     0.16000
C849        C  0.98084259  0.83919998  0.01582069    -0.13600
C850        C  0.98745898  0.86158574  0.98764743    -0.28800
H851        H  0.97711952  0.85045929  0.04265372     0.15400
H852        H  0.99478873  0.85034323  0.96156016     0.16000
C853        C  0.00203402  0.00923155  0.85855131    -0.13600
C854        C  0.97557923  0.00443590  0.83426491    -0.28800
H855        H  0.02971294  0.01192881  0.84915160     0.15400
H856        H  0.94845892  0.99804348  0.84356684     0.16000
C857        C  0.97819977  0.16382394  0.97716812    -0.13600
C858        C  0.98048615  0.14116690  0.00572512    -0.28800
H859        H  0.97932120  0.15319414  0.94985616     0.15400
H860        H  0.98320057  0.15229422  0.03273516     0.16000
C861        C  0.15322600  0.98336663  0.99032918    -0.13600
C862        C  0.13111300  0.01158459  0.99573982    -0.28800
H863        H  0.14204750  0.95620628  0.98860369     0.15400
H864        H  0.14255316  0.03821818  0.00064554     0.16000
C865        C  0.01901506  0.01353157  0.16082704    -0.13600
C866        C  0.00402436  0.98839497  0.13934635    -0.28800
H867        H  0.02761016  0.03928460  0.14923151     0.15400
H868        H  0.99263312  0.96404874  0.15160044     0.16000
C869        C  0.99827630  0.62421260  0.49708323    -0.13600
C870        C  0.02763619  0.64564963  0.49917323    -0.28800
H871        H  0.97205713  0.63636331  0.49253014     0.15400
H872        H  0.05427309  0.63367250  0.50039668     0.16000
C873        C  0.86306722  0.46972650  0.49368703    -0.13600
C874        C  0.84162031  0.49874013  0.49089849    -0.28800
H875        H  0.85133378  0.44300944  0.49807661     0.15400
H876        H  0.85349778  0.52570967  0.49004050     0.16000
C877        C  0.98418192  0.49375023  0.63940388    -0.13600
C878        C  0.01022011  0.50597716  0.66133275    -0.28800
H879        H  0.95887855  0.48402783  0.65088706     0.15400
H880        H  0.03674306  0.51221747  0.65028528     0.16000
C881        C  0.14051482  0.48499696  0.51149192    -0.13600
C882        C  0.16308494  0.48612588  0.48308732    -0.28800
H883        H  0.15118431  0.48753167  0.53875475     0.15400
H884        H  0.15223266  0.48725623  0.45577672     0.16000
C885        C  0.01298878  0.34259533  0.50913109    -0.13600
C886        C  0.01799998  0.32165957  0.47999774    -0.28800
H887        H  0.00683909  0.32994903  0.53512438     0.15400
H888        H  0.02026040  0.33417495  0.45333771     0.16000
C889        C  0.00149998  0.48191811  0.36062169    -0.13600
C890        C  0.99352504  0.51104616  0.34020325    -0.28800
H891        H  0.00852113  0.45662458  0.34760851     0.15400
H892        H  0.98986842  0.53723936  0.35281726     0.16000
C893        C  0.52155536  0.85924657  0.50950928    -0.13600
C894        C  0.50362552  0.83760545  0.48667206    -0.28800
H895        H  0.53929125  0.84751489  0.52984515     0.15400
H896        H  0.48635708  0.84957057  0.46605387     0.16000
C897        C  0.64946400  0.01005979  0.50146110    -0.13600
C898        C  0.67220865  0.99107049  0.52240508    -0.28800
H899        H  0.66016217  0.02838953  0.48078152     0.15400
H900        H  0.66160698  0.97251703  0.54292922     0.16000
C901        C  0.51177353  0.99817047  0.64741294    -0.13600
C902        C  0.48948279  0.01704850  0.66881652    -0.28800
H903        H  0.53236366  0.98130684  0.65977057     0.15400
H904        H  0.46907086  0.03403961  0.65632459     0.16000
C905        C  0.50618541  0.13939741  0.50084319    -0.13600
C906        C  0.48585731  0.16162027  0.52073344    -0.28800
H907        H  0.52523386  0.15097287  0.48140988     0.15400
H908        H  0.46686378  0.15037351  0.54038850     0.16000
C909        C  0.36949213  0.98813978  0.49859693    -0.13600
C910        C  0.34612930  0.00732045  0.51858756    -0.28800
H911        H  0.35913890  0.96951556  0.47848243     0.15400
H912        H  0.35661059  0.02554560  0.53900389     0.16000
C913        C  0.49606619  0.97758477  0.34237553    -0.13600
C914        C  0.51255796  0.00138047  0.36417086    -0.28800
H915        H  0.48079208  0.95513707  0.35414476     0.15400
H916        H  0.52806988  0.02359539  0.35226531     0.16000
C917        C  0.48231574  0.65199520  0.98813801    -0.13600
C918        C  0.50990751  0.67561501  0.98875134    -0.28800
H919        H  0.45506125  0.66183788  0.98399764     0.15400
H920        H  0.53737121  0.66552295  0.98953982     0.16000
C921        C  0.65595861  0.48522957  0.98241702    -0.13600
C922        C  0.63659032  0.51571781  0.98501533    -0.28800
H923        H  0.64251974  0.45904332  0.98327468     0.15400
H924        H  0.65036523  0.54154395  0.98801681     0.16000
C925        C  0.48856988  0.50315589  0.85813008    -0.13600
C926        C  0.48961366  0.53218176  0.83607557    -0.28800
H927        H  0.48972392  0.47612532  0.84683793     0.15400
H928        H  0.49222174  0.55912201  0.84734999     0.16000
C929        C  0.51945539  0.49230231  0.15709583    -0.13600
C930        C  0.51589229  0.52169334  0.13572142    -0.28800
H931        H  0.52301864  0.46581560  0.14507965     0.15400
H932        H  0.51541742  0.54850307  0.14756518     0.16000
C933        C  0.35920469  0.50759937  0.01702785    -0.13600
C934        C  0.33607559  0.51374231  0.98973191    -0.28800
H935        H  0.34895589  0.50114666  0.04393508     0.15400
H936        H  0.34635921  0.51716710  0.96231344     0.16000
C937        C  0.49559137  0.37106545  0.99898264    -0.13600
C938        C  0.49501613  0.34960409  0.02845200    -0.28800
H939        H  0.49705429  0.35891486  0.97231825     0.15400
H940        H  0.49738202  0.36127208  0.05524232     0.16000
loop_ 
_geom_bond_atom_site_label_1 
_geom_bond_atom_site_label_2 
_geom_bond_distance 
_geom_bond_site_symmetry_2 
_ccdc_geom_bond_type 
Zn1           O5   1.967   1_554  S
Zn1           O6   2.041       .  S
Zn1          O10   2.040       .  S
Zn1          O17   2.014       .  S
Zn2           O5   1.955       .  S
Zn2           O7   2.001       .  S
Zn2           O9   2.004       .  S
Zn2          O13   2.020       .  S
Zn3           O5   1.961       .  S
Zn3           O8   2.015       .  S
Zn3          O11   2.032       .  S
Zn3          O14   2.019       .  S
Zn4           O5   1.966   1_554  S
Zn4          O12   2.039       .  S
Zn4          O15   2.032       .  S
Zn4          O16   2.038       .  S
O6           C18   1.275       .  A
O7           C19   1.270       .  A
O8           C20   1.275   1_556  A
O9           C18   1.270   1_556  A
O10          C20   1.276       .  A
O11          C19   1.275       .  A
O12          C21   1.276   1_554  A
O13          C22   1.275       .  A
O14          C21   1.272       .  A
O15          C22   1.275   1_554  A
O16          C23   1.276       .  A
O17          C23   1.274       .  A
C18         C937   1.474   1_554  S
C19         C925   1.468       .  S
C20         C933   1.480       .  S
C21         C917   1.480       .  S
C22         C922   1.476       .  S
C23         C930   1.474       .  S
Zn24         O28   1.986   1_545  S
Zn24         O29   2.075       .  S
Zn24         O33   2.070       .  S
Zn24         O40   2.072       .  S
Zn25         O28   1.972       .  S
Zn25         O30   2.019       .  S
Zn25         O32   2.017       .  S
Zn25         O36   2.031       .  S
Zn26         O28   1.972       .  S
Zn26         O31   2.026       .  S
Zn26         O34   2.027       .  S
Zn26         O37   2.046       .  S
Zn27         O28   1.953   1_545  S
Zn27         O35   2.001       .  S
Zn27         O38   1.998       .  S
Zn27         O39   1.981       .  S
O29          C41   1.282   1_545  A
O30          C42   1.273       .  A
O31          C43   1.275       .  A
O32          C41   1.273       .  A
O33          C43   1.282   1_545  A
O34          C42   1.276       .  A
O35          C44   1.269   1_545  A
O36          C45   1.274   1_565  A
O37          C44   1.276       .  A
O38          C45   1.269       .  A
O39          C46   1.268       .  A
O40          C46   1.280       .  A
C41         C901   1.490       .  S
C42         C893   1.479       .  S
C43         C909   1.490       .  S
C44         C914   1.479   1_565  S
C45         C897   1.474       .  S
C46         C905   1.477       .  S
Zn47         O51   1.958   1_655  S
Zn47         O52   2.023       .  S
Zn47         O56   2.023       .  S
Zn47         O63   2.027       .  S
Zn48         O51   1.959       .  S
Zn48         O53   2.022       .  S
Zn48         O55   2.043       .  S
Zn48         O59   2.008       .  S
Zn49         O51   1.958   1_655  S
Zn49         O54   2.016       .  S
Zn49         O57   2.021       .  S
Zn49         O60   2.024       .  S
Zn50         O51   1.966       .  S
Zn50         O58   2.042       .  S
Zn50         O61   2.043       .  S
Zn50         O62   2.028       .  S
O52          C64   1.273   1_655  A
O53          C65   1.275   1_455  A
O54          C66   1.272       .  A
O55          C64   1.276       .  A
O56          C66   1.275       .  A
O57          C65   1.273       .  A
O58          C67   1.276       .  A
O59          C68   1.272       .  A
O60          C67   1.273   1_655  A
O61          C68   1.278       .  A
O62          C69   1.275       .  A
O63          C69   1.275   1_655  A
C64         C869   1.479   1_455  S
C65         C877   1.477       .  S
C66         C873   1.473       .  S
C67         C885   1.480       .  S
C68         C881   1.473       .  S
C69         C889   1.476       .  S
Zn70         O74   1.963   1_454  S
Zn70         O75   2.036       .  S
Zn70         O79   2.043       .  S
Zn70         O86   2.015       .  S
Zn71         O74   1.959   1_465  S
Zn71         O76   2.030       .  S
Zn71         O78   2.032       .  S
Zn71         O82   2.012       .  S
Zn72         O74   1.962   1_564  S
Zn72         O77   2.037       .  S
Zn72         O80   2.041       .  S
Zn72         O83   2.044       .  S
Zn73         O74   1.985       .  S
Zn73         O81   2.057       .  S
Zn73         O84   2.056       .  S
Zn73         O85   2.053       .  S
O75          C87   1.275   1_554  A
O76          C88   1.275   1_455  A
O77          C89   1.275       .  A
O78          C87   1.275   1_565  A
O79          C89   1.276   1_445  A
O80          C88   1.277   1_554  A
O81          C90   1.279   1_556  A
O82          C91   1.272   1_465  A
O83          C90   1.277   1_565  A
O84          C91   1.277       .  A
O85          C92   1.278   1_556  A
O86          C92   1.273   1_455  A
C87         C862   1.481       .  S
C88         C850   1.481       .  S
C89         C866   1.488   1_655  S
C90         C846   1.488       .  S
C91         C853   1.477   1_655  S
C92         C858   1.477       .  S
C93         C837   1.475       .  S
C93          N94   1.364       .  A
C93          N98   1.359       .  A
N94          C95   1.363   1_556  A
C95         C841   1.477       .  S
C95          N96   1.357       .  A
N96          C97   1.353   1_554  A
C97         C921   1.471       .  S
C97          N98   1.356       .  A
C99         C830   1.478       .  S
C99         N100   1.359       .  A
C99         N104   1.362       .  A
N100        C101   1.356   1_554  A
C101        C833   1.472       .  S
C101        N102   1.355       .  A
N102        C103   1.357       .  A
C103        C934   1.474       .  S
C103        N104   1.363   1_556  A
C105        C825   1.479       .  S
C105        N106   1.360       .  A
C105        N110   1.362       .  A
N106        C107   1.358       .  A
C107        C890   1.474       .  S
C107        N108   1.355   1_655  A
N108        C109   1.357       .  A
C109        C821   1.471       .  S
C109        N110   1.362   1_455  A
C111        C814   1.476       .  S
C111        N112   1.359       .  A
C111        N116   1.360   1_554  A
N112        C113   1.359   1_554  A
C113        C857   1.479       .  S
C113        N114   1.357       .  A
N114        C115   1.359   1_655  A
C115        C817   1.472       .  S
C115        N116   1.360   1_455  A
C117        C809   1.466       .  S
C117        N118   1.354       .  A
C117        N122   1.354       .  A
N118        C119   1.357   1_455  A
C119        C805   1.476       .  S
C119        N120   1.362       .  A
N120        C121   1.363   1_655  A
C121        C878   1.471       .  S
C121        N122   1.356       .  A
Zn123       O127   1.937       .  S
Zn123       O128   1.981       .  S
Zn123       O132   1.999       .  S
Zn123       O139   1.991       .  S
Zn124       O127   1.970       .  S
Zn124       O129   2.017       .  S
Zn124       O131   2.044       .  S
Zn124       O135   2.034       .  S
Zn125       O127   1.969       .  S
Zn125       O130   2.031       .  S
Zn125       O133   2.021       .  S
Zn125       O136   2.010       .  S
Zn126       O127   1.965       .  S
Zn126       O134   2.010       .  S
Zn126       O137   2.011       .  S
Zn126       O138   2.038       .  S
O128        C140   1.268       .  A
O129        C141   1.273       .  A
O130        C142   1.270       .  A
O131        C140   1.274       .  A
O132        C142   1.269       .  A
O133        C141   1.275       .  A
O134        C143   1.273       .  A
O135        C144   1.274       .  A
O136        C143   1.274       .  A
O137        C144   1.273       .  A
O138        C145   1.273       .  A
O139        C145   1.268       .  A
C140        C801   1.433       .  S
C141        C834   1.470       .  S
C142        C803   1.436       .  S
C143        C810   1.464       .  S
C144        C818   1.476       .  S
C145        C799   1.435       .  S
C146        C795   1.480       .  S
C146        N147   1.362       .  A
C146        N151   1.361   1_556  A
N147        C148   1.362   1_556  A
C148        C849   1.479       .  S
C148        N149   1.358       .  A
N149        C150   1.358       .  A
C150        C791   1.479   1_655  S
C150        N151   1.361       .  A
Zn152       O156   1.972       .  S
Zn152       O157   2.020       .  S
Zn152       O161   2.042       .  S
Zn152       O168   2.032       .  S
Zn153       O156   1.972       .  S
Zn153       O158   2.036       .  S
Zn153       O160   2.026       .  S
Zn153       O164   2.031       .  S
Zn154       O156   1.962       .  S
Zn154       O159   2.021       .  S
Zn154       O162   2.018       .  S
Zn154       O165   2.047       .  S
Zn155       O156   1.940       .  S
Zn155       O163   1.994       .  S
Zn155       O166   2.004       .  S
Zn155       O167   1.999       .  S
O157        C169   1.275       .  A
O158        C170   1.277       .  A
O159        C171   1.273       .  A
O160        C169   1.275       .  A
O161        C171   1.276       .  A
O162        C170   1.273       .  A
O163        C172   1.270       .  A
O164        C173   1.271       .  A
O165        C172   1.275       .  A
O166        C173   1.270       .  A
O167        C174   1.270       .  A
O168        C174   1.271       .  A
C169        C806   1.469       .  S
C170        C838   1.473       .  S
C171        C796   1.477       .  S
C172        C787   1.437       .  S
C173        C789   1.437       .  S
C174        C785   1.435       .  S
Zn175       O179   1.975       .  S
Zn175       O180   2.044       .  S
Zn175       O184   2.048       .  S
Zn175       O191   2.048       .  S
Zn176       O179   1.957       .  S
Zn176       O181   2.003       .  S
Zn176       O183   1.995       .  S
Zn176       O187   2.013       .  S
Zn177       O179   1.959       .  S
Zn177       O182   2.009       .  S
Zn177       O185   2.017       .  S
Zn177       O188   2.018       .  S
Zn178       O179   1.959       .  S
Zn178       O186   2.016       .  S
Zn178       O189   2.015       .  S
Zn178       O190   2.004       .  S
O180        C192   1.276       .  A
O181        C193   1.269       .  A
O182        C194   1.275       .  A
O183        C192   1.273       .  A
O184        C194   1.277       .  A
O185        C193   1.271       .  A
O186        C195   1.271       .  A
O187        C196   1.270       .  A
O188        C195   1.272       .  A
O189        C196   1.270       .  A
O190        C197   1.274       .  A
O191        C197   1.276       .  A
C192        C813   1.480       .  S
C193        C779   1.432       .  S
C194        C826   1.483       .  S
C195        C784   1.435       .  S
C196        C781   1.435       .  S
C197        C842   1.484       .  S
Zn198       O202   1.964       .  S
Zn198       O203   2.015       .  S
Zn198       O207   2.012       .  S
Zn198       O214   2.042       .  S
Zn199       O202   1.977       .  S
Zn199       O204   2.030       .  S
Zn199       O206   2.047       .  S
Zn199       O210   2.049       .  S
Zn200       O202   1.973       .  S
Zn200       O205   2.031       .  S
Zn200       O208   2.027       .  S
Zn200       O211   2.039       .  S
Zn201       O202   1.940       .  S
Zn201       O209   2.001       .  S
Zn201       O212   1.992       .  S
Zn201       O213   1.986       .  S
O203        C215   1.273       .  A
O204        C216   1.278       .  A
O205        C217   1.274       .  A
O206        C215   1.277       .  A
O207        C217   1.272       .  A
O208        C216   1.276       .  A
O209        C218   1.269       .  A
O210        C219   1.274       .  A
O211        C218   1.273       .  A
O212        C219   1.269       .  A
O213        C220   1.269       .  A
O214        C220   1.274       .  A
C215        C792   1.477       .  S
C216        C822   1.476       .  S
C217        C829   1.470       .  S
C218        C778   1.438       .  S
C219        C774   1.438       .  S
C220        C776   1.434       .  S
C221        C766   1.471       .  S
C221        N222   1.361       .  A
C221        N226   1.358       .  A
N222        C223   1.360   1_554  A
C223        C769   1.476       .  S
C223        N224   1.359   1_556  A
N224        C225   1.357       .  A
C225        C938   1.475       .  S
C225        N226   1.355       .  A
C227        C757   1.479       .  S
C227        N228   1.364       .  A
C227        N232   1.357       .  A
N228        C229   1.367       .  A
C229        C761   1.478   1_556  S
C229        N230   1.362       .  A
N230        C231   1.358       .  A
C231        C918   1.478       .  S
C231        N232   1.352       .  A
C233        C754   1.473       .  S
C233        N234   1.359       .  A
C233        N238   1.360       .  A
N234        C235   1.358       .  A
C235        C913   1.483       .  S
C235        N236   1.362   1_565  A
N236        C237   1.359       .  A
C237        C749   1.477       .  S
C237        N238   1.359   1_545  A
C239        C742   1.476       .  S
C239        N240   1.359       .  A
C239        N244   1.361   1_554  A
N240        C241   1.357   1_554  A
C241        C861   1.480       .  S
C241        N242   1.360   1_565  A
N242        C243   1.361       .  A
C243        C745   1.482       .  S
C243        N244   1.361   1_545  A
C245        C737   1.485       .  S
C245        N246   1.365       .  A
C245        N250   1.354   1_565  A
N246        C247   1.361   1_565  A
C247        C845   1.488       .  S
C247        N248   1.363   1_556  A
N248        C249   1.363       .  A
C249        C733   1.477       .  S
C249        N250   1.358   1_554  A
Zn251       O255   1.994       .  S
Zn251       O256   2.099       .  S
Zn251       O260   2.099       .  S
Zn251       O267   2.088       .  S
Zn252       O255   1.953       .  S
Zn252       O257   2.000       .  S
Zn252       O259   1.977       .  S
Zn252       O263   1.990       .  S
Zn253       O255   1.946       .  S
Zn253       O258   1.958       .  S
Zn253       O261   1.984       .  S
Zn253       O264   2.008       .  S
Zn254       O255   1.955       .  S
Zn254       O262   2.027       .  S
Zn254       O265   2.018       .  S
Zn254       O266   1.983       .  S
O256        C268   1.284       .  A
O257        C269   1.268       .  A
O258        C270   1.267       .  A
O259        C268   1.268       .  A
O260        C270   1.285       .  A
O261        C269   1.266       .  A
O262        C271   1.271       .  A
O263        C272   1.268       .  A
O264        C271   1.268       .  A
O265        C272   1.271       .  A
O266        C273   1.274       .  A
O267        C273   1.282       .  A
C268        C729   1.484       .  S
C269        C725   1.423       .  S
C270        C738   1.477       .  S
C271        C788   1.438       .  S
C272        C727   1.429       .  S
C273        C758   1.491       .  S
C274        C721   1.473       .  S
C274        N275   1.356       .  A
C274        N279   1.357       .  A
N275        C276   1.355       .  A
C276        C902   1.490       .  S
C276        N277   1.367   1_545  A
N277        C278   1.370       .  A
C278        C730   1.487       .  S
C278        N279   1.358   1_565  A
Zn280       O284   1.981       .  S
Zn280       O285   2.049       .  S
Zn280       O289   2.057       .  S
Zn280       O296   2.058       .  S
Zn281       O284   1.956       .  S
Zn281       O286   2.011       .  S
Zn281       O288   1.982       .  S
Zn281       O292   2.017       .  S
Zn282       O284   1.960       .  S
Zn282       O287   2.003       .  S
Zn282       O290   2.012       .  S
Zn282       O293   2.014       .  S
Zn283       O284   1.958       .  S
Zn283       O291   2.019       .  S
Zn283       O294   2.023       .  S
Zn283       O295   1.992       .  S
O285        C297   1.276       .  A
O286        C298   1.270       .  A
O287        C299   1.273       .  A
O288        C297   1.271       .  A
O289        C299   1.278       .  A
O290        C298   1.270       .  A
O291        C300   1.272       .  A
O292        C301   1.271       .  A
O293        C300   1.271       .  A
O294        C301   1.271       .  A
O295        C302   1.273       .  A
O296        C302   1.278       .  A
C297        C722   1.479       .  S
C298        C717   1.433       .  S
C299        C746   1.485       .  S
C300        C802   1.435       .  S
C301        C720   1.437       .  S
C302        C770   1.483       .  S
Zn303       O307   1.967       .  S
Zn303       O308   2.014       .  S
Zn303       O312   2.014       .  S
Zn303       O319   2.035       .  S
Zn304       O307   1.975       .  S
Zn304       O309   2.050       .  S
Zn304       O311   2.039       .  S
Zn304       O315   2.040       .  S
Zn305       O307   1.961       .  S
Zn305       O310   2.027       .  S
Zn305       O313   2.025       .  S
Zn305       O316   2.038       .  S
Zn306       O307   1.941       .  S
Zn306       O314   2.004       .  S
Zn306       O317   1.997       .  S
Zn306       O318   1.999       .  S
O308        C320   1.273       .  A
O309        C321   1.279       .  A
O310        C322   1.274       .  A
O311        C320   1.277       .  A
O312        C322   1.272       .  A
O313        C321   1.275       .  A
O314        C323   1.270       .  A
O315        C324   1.273       .  A
O316        C323   1.273       .  A
O317        C324   1.270       .  A
O318        C325   1.270       .  A
O319        C325   1.272       .  A
C320        C741   1.474       .  S
C321        C762   1.480       .  S
C322        C753   1.473       .  S
C323        C715   1.438       .  S
C324        C775   1.435       .  S
C325        C713   1.435       .  S
Zn326       O330   1.941       .  S
Zn326       O331   2.000       .  S
Zn326       O335   1.996       .  S
Zn326       O342   1.996       .  S
Zn327       O330   1.961       .  S
Zn327       O332   2.024       .  S
Zn327       O334   2.031       .  S
Zn327       O338   2.014       .  S
Zn328       O330   1.967       .  S
Zn328       O333   2.027       .  S
Zn328       O336   2.024       .  S
Zn328       O339   2.034       .  S
Zn329       O330   1.969       .  S
Zn329       O337   2.022       .  S
Zn329       O340   2.025       .  S
Zn329       O341   2.033       .  S
O331        C343   1.269       .  A
O332        C344   1.274       .  A
O333        C345   1.271       .  A
O334        C343   1.272       .  A
O335        C345   1.270       .  A
O336        C344   1.274       .  A
O337        C346   1.275       .  A
O338        C347   1.274       .  A
O339        C346   1.276       .  A
O340        C347   1.274       .  A
O341        C348   1.272       .  A
O342        C348   1.270       .  A
C343        C782   1.435       .  S
C344        C734   1.472       .  S
C345        C709   1.433       .  S
C346        C750   1.475       .  S
C347        C765   1.469       .  S
C348        C712   1.434       .  S
C349        C701   1.476       .  S
C349        N350   1.357       .  A
C349        N354   1.363       .  A
N350        C351   1.356       .  A
C351        C929   1.474       .  S
C351        N352   1.357       .  A
N352        C353   1.360       .  A
C353        C705   1.474       .  S
C353        N354   1.362       .  A
C355        C697   1.472       .  S
C355        N356   1.359       .  A
C355        N360   1.359       .  A
N356        C357   1.357       .  A
C357        C693   1.469       .  S
C357        N358   1.356       .  A
N358        C359   1.356       .  A
C359        C874   1.472       .  S
C359        N360   1.360       .  A
Zn361       O365   1.940       .  S
Zn361       O366   1.984       .  S
Zn361       O370   1.995       .  S
Zn361       O377   2.001       .  S
Zn362       O365   1.975       .  S
Zn362       O367   2.033       .  S
Zn362       O369   2.041       .  S
Zn362       O373   2.046       .  S
Zn363       O365   1.971       .  S
Zn363       O368   2.050       .  S
Zn363       O371   2.037       .  S
Zn363       O374   2.024       .  S
Zn364       O365   1.960       .  S
Zn364       O372   2.014       .  S
Zn364       O375   2.009       .  S
Zn364       O376   2.031       .  S
O366        C378   1.269       .  A
O367        C379   1.277       .  A
O368        C380   1.274       .  A
O369        C378   1.274       .  A
O370        C380   1.269       .  A
O371        C379   1.276       .  A
O372        C381   1.274       .  A
O373        C382   1.276       .  A
O374        C381   1.275       .  A
O375        C382   1.273       .  A
O376        C383   1.271       .  A
O377        C383   1.269       .  A
C378        C711   1.433       .  S
C379        C690   1.479       .  S
C380        C687   1.439       .  S
C381        C698   1.469       .  S
C382        C706   1.478       .  S
C383        C783   1.436       .  S
C384        C683   1.468       .  S
C384        N385   1.362       .  A
C384        N389   1.357       .  A
N385        C386   1.362       .  A
C386        C689   1.478       .  S
C386        N387   1.360       .  A
N387        C388   1.361       .  A
C388        C906   1.482       .  S
C388        N389   1.353       .  A
C390        C679   1.473       .  S
C390        N391   1.355       .  A
C390        N395   1.361       .  A
N391        C392   1.353       .  A
C392        C894   1.477       .  S
C392        N393   1.359       .  A
N393        C394   1.361       .  A
C394        C675   1.474       .  S
C394        N395   1.363       .  A
Zn396       O400   1.964       .  S
Zn396       O401   2.022       .  S
Zn396       O405   2.026       .  S
Zn396       O412   2.012       .  S
Zn397       O400   1.955       .  S
Zn397       O402   2.023       .  S
Zn397       O404   2.015       .  S
Zn397       O408   1.998       .  S
Zn398       O400   1.954       .  S
Zn398       O403   2.012       .  S
Zn398       O406   2.026       .  S
Zn398       O409   2.002       .  S
Zn399       O400   1.982       .  S
Zn399       O407   2.049       .  S
Zn399       O410   2.046       .  S
Zn399       O411   2.039       .  S
O401        C413   1.271       .  A
O402        C414   1.271       .  A
O403        C415   1.271       .  A
O404        C413   1.271       .  A
O405        C415   1.272       .  A
O406        C414   1.272       .  A
O407        C416   1.276       .  A
O408        C417   1.274       .  A
O409        C416   1.274       .  A
O410        C417   1.276       .  A
O411        C418   1.276       .  A
O412        C418   1.276       .  A
C413        C716   1.437       .  S
C414        C669   1.441       .  S
C415        C777   1.437       .  S
C416        C671   1.483       .  S
C417        C680   1.482       .  S
C418        C702   1.481       .  S
C419        C666   1.475       .  S
C419        N420   1.359       .  A
C419        N424   1.363       .  A
N420        C421   1.358       .  A
C421        C882   1.476       .  S
C421        N422   1.354       .  A
N422        C423   1.357       .  A
C423        C672   1.476       .  S
C423        N424   1.362       .  A
C425        C657   1.470       .  S
C425        N426   1.359       .  A
C425        N430   1.358       .  A
N426        C427   1.358       .  A
C427        C926   1.474       .  S
C427        N428   1.358       .  A
N428        C429   1.355       .  A
C429        C661   1.466       .  S
C429        N430   1.356       .  A
Zn431       O435   1.958       .  S
Zn431       O436   2.021       .  S
Zn431       O440   2.029       .  S
Zn431       O447   2.000       .  S
Zn432       O435   1.969       .  S
Zn432       O437   2.047       .  S
Zn432       O439   2.032       .  S
Zn432       O443   2.025       .  S
Zn433       O435   1.935       .  S
Zn433       O438   1.982       .  S
Zn433       O441   1.985       .  S
Zn433       O444   1.981       .  S
Zn434       O435   1.973       .  S
Zn434       O442   2.048       .  S
Zn434       O445   2.007       .  S
Zn434       O446   2.035       .  S
O436        C448   1.273       .  A
O437        C449   1.274       .  A
O438        C450   1.268       .  A
O439        C448   1.276       .  A
O440        C450   1.272       .  A
O441        C449   1.268       .  A
O442        C451   1.274       .  A
O443        C452   1.275       .  A
O444        C451   1.267       .  A
O445        C452   1.274       .  A
O446        C453   1.274       .  A
O447        C453   1.273       .  A
C448        C665   1.475       .  S
C449        C804   1.435       .  S
C450        C656   1.430       .  S
C451        C719   1.435       .  S
C452        C662   1.469       .  S
C453        C684   1.474       .  S
Zn454       O458   1.938       .  S
Zn454       O459   1.993       .  S
Zn454       O463   1.988       .  S
Zn454       O470   1.983       .  S
Zn455       O458   1.967       .  S
Zn455       O460   2.022       .  S
Zn455       O462   2.017       .  S
Zn455       O466   2.016       .  S
Zn456       O458   1.968       .  S
Zn456       O461   2.043       .  S
Zn456       O464   2.028       .  S
Zn456       O467   2.014       .  S
Zn457       O458   1.969       .  S
Zn457       O465   2.016       .  S
Zn457       O468   2.012       .  S
Zn457       O469   2.048       .  S
O459        C471   1.268       .  A
O460        C472   1.276       .  A
O461        C473   1.273       .  A
O462        C471   1.269       .  A
O463        C473   1.268       .  A
O464        C472   1.275       .  A
O465        C474   1.273       .  A
O466        C475   1.274       .  A
O467        C474   1.274       .  A
O468        C475   1.273       .  A
O469        C476   1.274       .  A
O470        C476   1.267       .  A
C471        C728   1.430       .  S
C472        C676   1.474       .  S
C473        C653   1.436       .  S
C474        C694   1.470       .  S
C475        C658   1.468       .  S
C476        C790   1.436       .  S
C477        C646   1.485       .  S
C477        N478   1.367       .  A
C477        N482   1.357       .  A
N478        C479   1.370   1_545  A
C479        C649   1.490       .  S
C479        N480   1.367       .  A
N480        C481   1.362   1_565  A
C481        C910   1.489       .  S
C481        N482   1.353       .  A
C483        C641   1.470       .  S
C483        N484   1.357       .  A
C483        N488   1.360   1_545  A
N484        C485   1.358   1_545  A
C485        C898   1.477       .  S
C485        N486   1.355       .  A
N486        C487   1.357       .  A
C487        C637   1.466       .  S
C487        N488   1.359       .  A
C489        C630   1.478       .  S
C489        N490   1.353       .  A
C489        N494   1.365       .  A
N490        C491   1.355   1_455  A
C491        C634   1.464       .  S
C491        N492   1.356       .  A
N492        C493   1.356   1_655  A
C493        C886   1.478       .  S
C493        N494   1.362       .  A
C495        C622   1.474       .  S
C495        N496   1.356   1_655  A
C495        N500   1.361   1_655  A
N496        C497   1.356       .  A
C497        C865   1.481       .  S
C497        N498   1.364   1_545  A
N498        C499   1.366       .  A
C499        C625   1.488       .  S
C499        N500   1.362   1_565  A
C501        C614   1.480       .  S
C501        N502   1.356       .  A
C501        N506   1.362       .  A
N502        C503   1.356   1_455  A
C503        C617   1.472       .  S
C503        N504   1.358       .  A
N504        C505   1.361   1_655  A
C505        C870   1.482       .  S
C505        N506   1.363       .  A
Zn507       O511   1.978       .  S
Zn507       O512   2.042       .  S
Zn507       O516   2.046       .  S
Zn507       O523   2.036       .  S
Zn508       O511   1.945       .  S
Zn508       O513   1.978       .  S
Zn508       O515   1.997       .  S
Zn508       O519   1.994       .  S
Zn509       O511   1.979       .  S
Zn509       O514   2.052       .  S
Zn509       O517   2.049       .  S
Zn509       O520   2.064       .  S
Zn510       O511   1.972       .  S
Zn510       O518   2.053       .  S
Zn510       O521   2.055       .  S
Zn510       O522   2.030       .  S
O512        C524   1.272       .  A
O513        C525   1.268       .  A
O514        C526   1.278       .  A
O515        C524   1.268       .  A
O516        C526   1.277       .  A
O517        C525   1.275       .  A
O518        C527   1.278       .  A
O519        C528   1.268       .  A
O520        C527   1.280       .  A
O521        C528   1.275       .  A
O522        C529   1.276       .  A
O523        C529   1.278       .  A
C524        C773   1.438       .  S
C525        C714   1.434       .  S
C526        C626   1.485       .  S
C527        C650   1.491       .  S
C528        C670   1.441       .  S
C529        C613   1.476       .  S
Zn530       O534   1.967       .  S
Zn530       O535   2.045       .  S
Zn530       O539   2.013       .  S
Zn530       O546   2.014       .  S
Zn531       O534   1.937       .  S
Zn531       O536   1.996       .  S
Zn531       O538   1.998       .  S
Zn531       O542   1.979       .  S
Zn532       O534   1.966       .  S
Zn532       O537   1.997       .  S
Zn532       O540   2.023       .  S
Zn532       O543   2.029       .  S
Zn533       O534   1.970       .  S
Zn533       O541   2.026       .  S
Zn533       O544   2.044       .  S
Zn533       O545   2.022       .  S
O535        C547   1.273       .  A
O536        C548   1.269       .  A
O537        C549   1.273       .  A
O538        C547   1.268       .  A
O539        C549   1.273       .  A
O540        C548   1.270       .  A
O541        C550   1.274       .  A
O542        C551   1.269       .  A
O543        C550   1.275       .  A
O544        C551   1.275       .  A
O545        C552   1.273       .  A
O546        C552   1.274       .  A
C547        C688   1.439       .  S
C548        C780   1.432       .  S
C549        C633   1.464       .  S
C550        C621   1.478       .  S
C551        C710   1.431       .  S
C552        C642   1.471       .  S
C553        C605   1.480       .  S
C553        N554   1.360       .  A
C553        N558   1.363   1_455  A
N554        C555   1.359   1_455  A
C555        C854   1.482       .  S
C555        N556   1.356   1_545  A
N556        C557   1.360       .  A
C557        C609   1.474       .  S
C557        N558   1.362   1_565  A
Zn559       O563   1.955       .  S
Zn559       O564   1.999       .  S
Zn559       O568   1.992       .  S
Zn559       O575   2.014       .  S
Zn560       O563   1.939       .  S
Zn560       O565   1.994       .  S
Zn560       O567   1.988       .  S
Zn560       O571   1.982       .  S
Zn561       O563   1.975       .  S
Zn561       O566   2.034       .  S
Zn561       O569   2.040       .  S
Zn561       O572   2.022       .  S
Zn562       O563   1.967       .  S
Zn562       O570   2.014       .  S
Zn562       O573   2.049       .  S
Zn562       O574   2.038       .  S
O564        C576   1.267       .  A
O565        C577   1.269       .  A
O566        C578   1.275       .  A
O567        C576   1.268       .  A
O568        C578   1.273       .  A
O569        C577   1.272       .  A
O570        C579   1.274       .  A
O571        C580   1.268       .  A
O572        C579   1.275       .  A
O573        C580   1.275       .  A
O574        C581   1.275       .  A
O575        C581   1.273       .  A
C576        C726   1.423       .  S
C577        C654   1.436       .  S
C578        C638   1.471       .  S
C579        C618   1.467       .  S
C580        C786   1.434       .  S
C581        C610   1.480       .  S
Zn582       O586   1.979       .  S
Zn582       O587   2.061       .  S
Zn582       O591   2.078       .  S
Zn582       O598   2.073       .  S
Zn583       O586   1.959       .  S
Zn583       O588   2.013       .  S
Zn583       O590   2.006       .  S
Zn583       O594   2.033       .  S
Zn584       O586   1.956       .  S
Zn584       O589   2.009       .  S
Zn584       O592   2.010       .  S
Zn584       O595   2.021       .  S
Zn585       O586   1.946       .  S
Zn585       O593   1.992       .  S
Zn585       O596   2.001       .  S
Zn585       O597   1.960       .  S
O587        C599   1.279       .  A
O588        C600   1.271       .  A
O589        C601   1.275       .  A
O590        C599   1.275       .  A
O591        C601   1.280       .  A
O592        C600   1.271       .  A
O593        C602   1.268       .  A
O594        C603   1.272       .  A
O595        C602   1.271       .  A
O596        C603   1.268       .  A
O597        C604   1.266       .  A
O598        C604   1.282       .  A
C599        C606   1.486       .  S
C600        C718   1.432       .  S
C601        C645   1.496       .  S
C602        C655   1.430       .  S
C603        C800   1.436       .  S
C604        C629   1.472       .  S
C605        C606   1.349       .  D
C605        H607   1.086       .  S
C606        H608   1.086       .  S
C609        C610   1.345       .  D
C609        H611   1.086       .  S
C610        H612   1.086       .  S
C613        C614   1.349       .  D
C613        H615   1.086       .  S
C614        H616   1.086       .  S
C617        C618   1.343       .  D
C617        H619   1.086       .  S
C618        H620   1.086       .  S
C621        C622   1.343       .  D
C621        H623   1.087       .  S
C622        H624   1.086       .  S
C625        C626   1.351       .  D
C625        H627   1.087       .  S
C626        H628   1.086       .  S
C629        C630   1.335       .  D
C629        H631   1.087       .  S
C630        H632   1.087       .  S
C633        C634   1.341       .  D
C633        H635   1.088       .  S
C634        H636   1.088       .  S
C637        C638   1.343       .  D
C637        H639   1.088       .  S
C638        H640   1.086       .  S
C641        C642   1.340       .  D
C641        H643   1.087       .  S
C642        H644   1.087       .  S
C645        C646   1.350       .  D
C645        H647   1.086       .  S
C646        H648   1.087       .  S
C649        C650   1.348       .  D
C649        H651   1.087       .  S
C650        H652   1.087       .  S
C653        C654   1.206       .  T
C655        C656   1.203       .  T
C657        C658   1.343       .  D
C657        H659   1.087       .  S
C658        H660   1.087       .  S
C661        C662   1.341       .  D
C661        H663   1.087       .  S
C662        H664   1.087       .  S
C665        C666   1.342       .  D
C665        H667   1.086       .  S
C666        H668   1.086       .  S
C669        C670   1.209       .  T
C671        C672   1.347       .  D
C671        H673   1.086       .  S
C672        H674   1.087       .  S
C675        C676   1.343       .  D
C675        H677   1.087       .  S
C676        H678   1.086       .  S
C679        C680   1.346       .  D
C679        H681   1.087       .  S
C680        H682   1.086       .  S
C683        C684   1.341       .  D
C683        H685   1.088       .  S
C684        H686   1.086       .  S
C687        C688   1.208       .  T
C689        C690   1.343       .  D
C689        H691   1.087       .  S
C690        H692   1.086       .  S
C693        C694   1.342       .  D
C693        H695   1.087       .  S
C694        H696   1.087       .  S
C697        C698   1.343       .  D
C697        H699   1.087       .  S
C698        H700   1.087       .  S
C701        C702   1.345       .  D
C701        H703   1.087       .  S
C702        H704   1.087       .  S
C705        C706   1.345       .  D
C705        H707   1.087       .  S
C706        H708   1.086       .  S
C709        C710   1.204       .  T
C711        C712   1.205       .  T
C713        C714   1.206       .  T
C715        C716   1.207       .  T
C717        C718   1.204       .  T
C719        C720   1.206       .  T
C721        C722   1.348       .  D
C721        H723   1.086       .  S
C722        H724   1.086       .  S
C725        C726   1.199       .  T
C727        C728   1.202       .  T
C729        C730   1.339       .  D
C729        H731   1.088       .  S
C730        H732   1.088       .  S
C733        C734   1.346       .  D
C733        H735   1.086       .  S
C734        H736   1.086       .  S
C737        C738   1.338       .  D
C737        H739   1.087       .  S
C738        H740   1.088       .  S
C741        C742   1.343       .  D
C741        H743   1.087       .  S
C742        H744   1.087       .  S
C745        C746   1.351       .  D
C745        H747   1.086       .  S
C746        H748   1.085       .  S
C749        C750   1.345       .  D
C749        H751   1.086       .  S
C750        H752   1.086       .  S
C753        C754   1.343       .  D
C753        H755   1.087       .  S
C754        H756   1.087       .  S
C757        C758   1.351       .  D
C757        H759   1.087       .  S
C758        H760   1.086       .  S
C761        C762   1.343       .  D
C761        H763   1.086       .  S
C762        H764   1.087       .  S
C765        C766   1.341       .  D
C765        H767   1.086       .  S
C766        H768   1.087       .  S
C769        C770   1.349       .  D
C769        H771   1.086       .  S
C770        H772   1.085       .  S
C773        C774   1.208       .  T
C775        C776   1.206       .  T
C777        C778   1.207       .  T
C779        C780   1.204       .  T
C781        C782   1.206       .  T
C783        C784   1.206       .  T
C785        C786   1.205       .  T
C787        C788   1.207       .  T
C789        C790   1.207       .  T
C791        C792   1.344       .  D
C791        H793   1.087       .  S
C792        H794   1.087       .  S
C795        C796   1.345       .  D
C795        H797   1.086       .  S
C796        H798   1.086       .  S
C799        C800   1.206       .  T
C801        C802   1.205       .  T
C803        C804   1.206       .  T
C805        C806   1.347       .  D
C805        H807   1.087       .  S
C806        H808   1.086       .  S
C809        C810   1.341       .  D
C809        H811   1.088       .  S
C810        H812   1.087       .  S
C813        C814   1.348       .  D
C813        H815   1.085       .  S
C814        H816   1.085       .  S
C817        C818   1.345       .  D
C817        H819   1.087       .  S
C818        H820   1.087       .  S
C821        C822   1.342       .  D
C821        H823   1.086       .  S
C822        H824   1.087       .  S
C825        C826   1.348       .  D
C825        H827   1.085       .  S
C826        H828   1.084       .  S
C829        C830   1.346       .  D
C829        H831   1.086       .  S
C830        H832   1.086       .  S
C833        C834   1.342       .  D
C833        H835   1.088       .  S
C834        H836   1.087       .  S
C837        C838   1.341       .  D
C837        H839   1.087       .  S
C838        H840   1.086       .  S
C841        C842   1.347       .  D
C841        H843   1.086       .  S
C842        H844   1.085       .  S
C845        C846   1.347   1_556  D
C845        H847   1.086       .  S
C846        H848   1.086   1_545  S
C849        C850   1.344   1_554  D
C849        H851   1.087       .  S
C850        H852   1.087       .  S
C853        C854   1.343   1_455  D
C853        H855   1.086       .  S
C854        H856   1.086   1_545  S
C857        C858   1.343   1_556  D
C857        H859   1.086       .  S
C858        H860   1.087       .  S
C861        C862   1.345   1_565  D
C861        H863   1.086       .  S
C862        H864   1.086   1_556  S
C865        C866   1.346   1_545  D
C865        H867   1.086       .  S
C866        H868   1.086   1_455  S
C869        C870   1.346   1_655  D
C869        H871   1.086       .  S
C870        H872   1.085       .  S
C873        C874   1.341       .  D
C873        H875   1.087       .  S
C874        H876   1.087       .  S
C877        C878   1.341   1_655  D
C877        H879   1.087       .  S
C878        H880   1.087       .  S
C881        C882   1.340       .  D
C881        H883   1.087       .  S
C882        H884   1.087       .  S
C885        C886   1.343       .  D
C885        H887   1.087       .  S
C886        H888   1.087       .  S
C889        C890   1.343   1_455  D
C889        H891   1.087       .  S
C890        H892   1.087       .  S
C893        C894   1.343       .  D
C893        H895   1.088       .  S
C894        H896   1.088       .  S
C897        C898   1.342   1_545  D
C897        H899   1.089       .  S
C898        H900   1.088       .  S
C901        C902   1.344   1_565  D
C901        H903   1.087       .  S
C902        H904   1.087       .  S
C905        C906   1.340       .  D
C905        H907   1.089       .  S
C906        H908   1.088       .  S
C909        C910   1.345   1_565  D
C909        H911   1.087       .  S
C910        H912   1.087       .  S
C913        C914   1.343   1_565  D
C913        H915   1.088       .  S
C914        H916   1.089       .  S
C917        C918   1.342       .  D
C917        H919   1.086       .  S
C918        H920   1.087       .  S
C921        C922   1.343       .  D
C921        H923   1.086       .  S
C922        H924   1.087       .  S
C925        C926   1.341       .  D
C925        H927   1.086       .  S
C926        H928   1.086       .  S
C929        C930   1.344       .  D
C929        H931   1.086       .  S
C930        H932   1.086       .  S
C933        C934   1.344   1_554  D
C933        H935   1.087       .  S
C934        H936   1.087       .  S
C937        C938   1.340   1_556  D
C937        H939   1.087       .  S
C938        H940   1.086       .  S
