geometry optimzed in LAMMPS
_audit_creation_date              2020-11-30 
_audit_creation_method            'lammps2cif' 
_symmetry_space_group_name_H-M    'P1' 
_symmetry_Int_Tables_number       1 
_symmetry_cell_setting            triclinic 
loop_ 
_symmetry_equiv_pos_as_xyz 
  x,y,z 
_cell_length_a                    33.26311385 
_cell_length_b                    33.26628309537422 
_cell_length_c                    46.25362287725904 
_cell_angle_alpha                 89.93862907005598 
_cell_angle_beta                  90.07997320644051 
_cell_angle_gamma                 120.01208316286169 
loop_ 
_atom_site_label 
_atom_site_type_symbol 
_atom_site_fract_x 
_atom_site_fract_y 
_atom_site_fract_z 
_atom_site_charge 
O1          O  0.13754297  0.25956833  0.03393221    -0.79400
C2          C  0.16132271  0.40602542  0.46018371     0.99900
O3          O  0.12601367  0.38005992  0.47509182    -0.68600
O4          O  0.09157548  0.29128426  0.46511565    -0.72200
Al5        Al  0.11019071  0.32764250  0.99932712     1.49000
C6          C  0.09400047  0.25524062  0.46063684     0.95200
O7          O  0.20880764  0.30035164  0.46531055    -0.78400
O8          O  0.24103293  0.37885087  0.03370453    -0.71900
Al9        Al  0.17270908  0.28300392  0.49962301     1.90100
O10         O  0.25411676  0.37418100  0.47539717    -0.71000
O11         O  0.19220476  0.41904657  0.02328870    -0.70900
O12         O  0.19977909  0.40848666  0.46487056    -0.76500
O13         O  0.12178357  0.36307050  0.03350536    -0.74700
O14         O  0.16675499  0.33360352  0.99936114    -1.10800
O15         O  0.08151049  0.27392175  0.02363741    -0.70000
C16         C  0.09776402  0.25378056  0.03869527     1.00700
C17         C  0.24483921  0.33876884  0.46062568     0.97100
Al18       Al  0.21737035  0.39017047  0.99930763     1.55600
O19         O  0.12009753  0.24609325  0.47559550    -0.74700
C20         C  0.15574656  0.40290020  0.03823181     1.01200
C21         C  0.24685916  0.34492029  0.03865605     0.96100
O22         O  0.22661769  0.30835716  0.02379385    -0.80000
O23         O  0.37850996  0.13794626  0.03380368    -0.79400
C24         C  0.25536634  0.16133063  0.46021233     0.99900
O25         O  0.24609227  0.12609306  0.47520284    -0.68600
O26         O  0.30035084  0.09159190  0.46521098    -0.72200
Al27       Al  0.28283153  0.11039555  0.99941480     1.49000
C28         C  0.33878735  0.09397560  0.46066304     0.95200
O29         O  0.40851811  0.20876919  0.46496223    -0.78400
O30         O  0.36273503  0.24141019  0.03338117    -0.71900
Al31       Al  0.39001447  0.17290192  0.49939378     1.90100
O32         O  0.38011328  0.25415870  0.47502076    -0.71000
O33         O  0.27362055  0.19253797  0.02322654    -0.70900
O34         O  0.29140043  0.19980172  0.46476693    -0.76500
O35         O  0.25920358  0.12217017  0.03360698    -0.74700
O36         O  0.33345383  0.16694988  0.49924738    -1.10800
O37         O  0.30803428  0.08186121  0.02374428    -0.70000
C38         C  0.34454292  0.09818718  0.03869765     1.00700
C39         C  0.40611995  0.24477598  0.46021071     0.97100
Al40       Al  0.32752270  0.21756379  0.99909957     1.55600
O41         O  0.37413488  0.12013789  0.47551471    -0.74700
C42         C  0.25337608  0.15615618  0.03827381     1.01200
C43         C  0.40254780  0.24730455  0.03823584     0.96100
O44         O  0.41876912  0.22697880  0.02338896    -0.80000
C45         C  0.00037086  0.45805486  0.12422444     0.04600
C46         C  0.45776934  0.45805076  0.12438924     0.04600
C47         C  0.45777205  0.00065130  0.12449816     0.04600
C48         C  0.00038158  0.04326071  0.12447450     0.04600
C49         C  0.04299314  0.04326730  0.12430720     0.04600
C50         C  0.04298494  0.00066114  0.12418966     0.04600
C51         C  0.36065281  0.02295299  0.10242486     0.05500
C52         C  0.40220935  0.02199248  0.10203853    -0.10700
C53         C  0.41296036  0.00065055  0.12457382     0.03000
C54         C  0.38105204  0.47930456  0.14716283    -0.09200
C55         C  0.33853750  0.47836652  0.14688296     0.05500
C56         C  0.32847460  0.00066674  0.12468045    -0.08600
H57         H  0.42655389  0.03843063  0.08443537     0.11100
H58         H  0.38909033  0.46284052  0.16471678     0.08600
H59         H  0.29587147  0.00066690  0.12471764     0.08400
C60         C  0.13996352  0.47845402  0.10176203     0.05500
C61         C  0.17229612  0.00066167  0.12398785    -0.10700
C62         C  0.16237649  0.02286219  0.14626904     0.03000
C63         C  0.11986016  0.02190323  0.14665811    -0.09200
C64         C  0.08780128  0.00066483  0.12410098     0.05500
C65         C  0.09839486  0.47941050  0.10148523    -0.08600
H66         H  0.20489566  0.00065380  0.12395015     0.11100
H67         H  0.11192969  0.03826708  0.16428205     0.08600
H68         H  0.07391728  0.46302077  0.08391615     0.08400
C69         C  0.16219860  0.14039098  0.10191404     0.05500
C70         C  0.11967423  0.09881207  0.10162580    -0.10700
C71         C  0.08782095  0.08808718  0.12426123     0.03000
C72         C  0.09863656  0.12003283  0.14685489    -0.09200
C73         C  0.14018323  0.16257398  0.14647755     0.05500
C74         C  0.17231177  0.17261927  0.12417349    -0.08600
H75         H  0.11158747  0.07442575  0.08402616     0.11100
H76         H  0.07433371  0.11200679  0.16449129     0.08600
H77         H  0.20490869  0.20523564  0.12414109     0.08400
C78         C  0.47827230  0.14027781  0.14698474     0.05500
C79         C  0.47920029  0.09869583  0.14723008    -0.10700
C80         C  0.00037798  0.08807117  0.12458189     0.03000
C81         C  0.02154894  0.12010191  0.10201842    -0.09200
C82         C  0.02254212  0.16262882  0.10243696     0.05500
C83         C  0.00043078  0.17258713  0.12475390    -0.08600
H84         H  0.46285377  0.07423517  0.16480288     0.11100
H85         H  0.03784951  0.11214681  0.08436871     0.08600
H86         H  0.00045208  0.20519834  0.12481449     0.08400
C87         C  0.36082021  0.33871577  0.14670171     0.05500
C88         C  0.40240813  0.38122700  0.14699184    -0.10700
C89         C  0.41295774  0.41323590  0.12443882     0.03000
C90         C  0.38084940  0.40258478  0.10192773    -0.09200
C91         C  0.33832683  0.36102355  0.10230517     0.05500
C92         C  0.32843959  0.32874908  0.12452502    -0.08600
H93         H  0.42692279  0.38919327  0.16452992     0.11100
H94         H  0.38874726  0.42700913  0.08435247     0.08600
H95         H  0.29582490  0.29614893  0.12455587     0.08400
C96         C  0.02273915  0.36097098  0.14621409     0.05500
C97         C  0.00041640  0.32878914  0.12395598    -0.10700
C98         C  0.47804736  0.33882627  0.10178311     0.03000
C99         C  0.47895340  0.38132334  0.10153608    -0.09200
C100        C  0.00035934  0.41324417  0.12412545     0.05500
C101        C  0.02176238  0.40251183  0.14663215    -0.08600
H102        H  0.00044059  0.29620093  0.12389483     0.11100
H103        H  0.46243524  0.38934529  0.08400450     0.08600
H104        H  0.03824062  0.42686346  0.16423757     0.08400
O105        O  0.25939447  0.13783100  0.21484581    -0.79400
C106        C  0.40583880  0.16144110  0.28859176     0.99900
O107        O  0.37989584  0.12617352  0.27363338    -0.68600
O108        O  0.29111476  0.09168348  0.28358060    -0.72200
Al109      Al  0.32748230  0.11040286  0.24938783     1.49000
C110        C  0.25505384  0.09406980  0.28807622     0.95200
O111        O  0.30012231  0.20884929  0.28358349    -0.78400
O112        O  0.37867313  0.24133362  0.21521117    -0.71900
Al113      Al  0.28280493  0.17288249  0.24920997     1.90100
O114        O  0.37395382  0.25422533  0.27354075    -0.71000
O115        O  0.41889725  0.19249370  0.22553338    -0.70900
O116        O  0.40828567  0.19989742  0.28396507    -0.76500
O117        O  0.36293390  0.12210058  0.21522102    -0.74700
O118        O  0.33342177  0.16695100  0.24944247    -1.10800
O119        O  0.27376317  0.08178531  0.22504790    -0.70000
C120        C  0.25360797  0.09806742  0.21002666     1.00700
C121        C  0.33852957  0.24487478  0.28831513     0.97100
Al122      Al  0.38998319  0.21757427  0.24956360     1.55600
O123        O  0.24588475  0.12018450  0.27315734    -0.74700
C124        C  0.40277319  0.15607259  0.21054429     1.01200
C125        C  0.34474774  0.24718897  0.21029175     0.96100
O126        O  0.30816840  0.22688378  0.22512823    -0.80000
O127        O  0.19955908  0.29143275  0.28372060    -0.79400
C128        C  0.09800688  0.34482586  0.20990750     0.99900
O129        O  0.08165969  0.30828745  0.22481481    -0.68600
O130        O  0.12195856  0.25948267  0.21486179    -0.72200
Al131      Al  0.11016954  0.28301337  0.24909638     1.49000
C132        C  0.15596200  0.25369374  0.21016261     0.95200
O133        O  0.24122293  0.36300896  0.21521992    -0.78400
O134        O  0.20855683  0.40858957  0.28371852    -0.71900
Al135      Al  0.21734999  0.32768459  0.24944866     1.90100
O136        O  0.22678580  0.41900622  0.22530434    -0.71000
O137        O  0.11991905  0.37425145  0.27313116    -0.70900
O138        O  0.13776373  0.37877788  0.21484701    -0.76500
O139        O  0.09134679  0.30044603  0.28333437    -0.74700
O140        O  0.16673615  0.33362437  0.24932896    -1.10800
O141        O  0.12583864  0.24619457  0.27324354    -0.70000
C142        C  0.16107347  0.25539569  0.28822896     1.00700
C143        C  0.24710382  0.40282304  0.21041797     0.97100
Al144      Al  0.17269861  0.39018559  0.24926764     1.55600
O145        O  0.19233891  0.27388577  0.22523112    -0.74700
C146        C  0.09373729  0.33887318  0.28793632     1.01200
C147        C  0.24455651  0.40616205  0.28845867     0.96100
O148        O  0.25393103  0.38018270  0.27361155    -0.80000
C149        C  0.45705768  0.99990557  0.37448236     0.04600
C150        C  0.45705299  0.45715952  0.37437890     0.04600
C151        C  0.49980481  0.45716566  0.37423064     0.04600
C152        C  0.04255796  0.49991661  0.37421145     0.04600
C153        C  0.04256148  0.04266240  0.37430607     0.04600
C154        C  0.99981310  0.04265686  0.37445171     0.04600
C155        C  0.14045500  0.47831399  0.39651135     0.05500
C156        C  0.17211062  0.49980369  0.37397058    -0.10700
C157        C  0.16177682  0.02136371  0.35151414     0.03000
C158        C  0.11934681  0.02080025  0.35133698    -0.09200
C159        C  0.08754620  0.49990755  0.37412831     0.05500
C160        C  0.09864725  0.47898168  0.39684442    -0.08600
H161        H  0.20470771  0.49977487  0.37391426     0.11100
H162        H  0.11121148  0.03696128  0.33365395     0.08600
H163        H  0.07454231  0.46287941  0.41459465     0.08400
C164        C  0.35925567  0.02127384  0.39721723     0.05500
C165        C  0.40111283  0.02068913  0.39739418    -0.10700
C166        C  0.41205543  0.49989057  0.37457725     0.03000
C167        C  0.38006825  0.47907247  0.35183778    -0.09200
C168        C  0.33759561  0.47840882  0.35217008     0.05500
C169        C  0.32739758  0.49981103  0.37473499    -0.08600
H170        H  0.42538279  0.03677358  0.41509415     0.11100
H171        H  0.38809896  0.46304573  0.33406740     0.08600
H172        H  0.29477644  0.49979197  0.37478905     0.08400
C173        C  0.47818611  0.14053836  0.35221050     0.05500
C174        C  0.49973562  0.17221221  0.37474365    -0.10700
C175        C  0.02134829  0.16189917  0.39717869     0.03000
C176        C  0.02078200  0.11946999  0.39733925    -0.09200
C177        C  0.49981555  0.08764538  0.37455410     0.05500
C178        C  0.47883656  0.09872807  0.35186092    -0.08600
H179        H  0.49970926  0.20480812  0.37481154     0.11100
H180        H  0.03698816  0.11134982  0.41500540     0.08600
H181        H  0.46268178  0.07460820  0.33411499     0.08400
C182        C  0.14030501  0.16203477  0.35172762     0.05500
C183        C  0.09845086  0.11958365  0.35151372    -0.10700
C184        C  0.08755619  0.08765870  0.37425710     0.03000
C185        C  0.11958212  0.09865782  0.39695890    -0.09200
C186        C  0.16203923  0.14049407  0.39666098     0.05500
C187        C  0.17219288  0.17227412  0.37417308    -0.08600
H188        H  0.07415659  0.11152179  0.33383694     0.11100
H189        H  0.11159187  0.07445460  0.41467194     0.08600
H190        H  0.20481313  0.20488605  0.37414356     0.08400
C191        C  0.02112534  0.35935022  0.35143753     0.05500
C192        C  0.49973095  0.32752611  0.37393204    -0.10700
C193        C  0.47839733  0.33775403  0.39652346     0.03000
C194        C  0.47906232  0.38022189  0.39687167    -0.09200
C195        C  0.49980158  0.41217213  0.37412095     0.05500
C196        C  0.02053501  0.40120286  0.35127722    -0.08600
H197        H  0.49970824  0.29490625  0.37386587     0.11100
H198        H  0.46308809  0.38827316  0.41466155     0.08600
H199        H  0.03656285  0.42544707  0.33356959     0.08400
C200        C  0.35906117  0.33782755  0.35193962     0.05500
C201        C  0.32743175  0.32751331  0.37451251    -0.10700
C202        C  0.33782418  0.35924653  0.39704082     0.03000
C203        C  0.38028802  0.40109036  0.39725224    -0.09200
C204        C  0.41204816  0.41215951  0.37442522     0.05500
C205        C  0.40088293  0.38030250  0.35164084    -0.08600
H206        H  0.29482172  0.29489137  0.37454410     0.11100
H207        H  0.38847689  0.42525445  0.41498892     0.08600
H208        H  0.42496170  0.38842523  0.33386761     0.08400
C209        C  0.15673428  0.22367054  0.31064575    -0.10900
C210        C  0.15012614  0.19561627  0.32923815    -0.12500
C211        C  0.04472243  0.34952572  0.32887828    -0.10900
C212        C  0.06617503  0.34300628  0.31028150    -0.12500
C213        C  0.27604304  0.43349880  0.31098645    -0.10900
C214        C  0.30398840  0.45484427  0.32965468    -0.12500
C215        C  0.43313585  0.15717144  0.31110515    -0.10900
C216        C  0.45451015  0.15053203  0.32974087    -0.12500
C217        C  0.22329303  0.06655392  0.31041998    -0.10900
C218        C  0.19527133  0.04506955  0.32899850    -0.12500
C219        C  0.34257626  0.27639407  0.31076372    -0.10900
C220        C  0.34908157  0.30430526  0.32940886    -0.12500
C221        C  0.04774344  0.35233312  0.16841597    -0.10900
C222        C  0.07037913  0.34803234  0.18722776    -0.12500
C223        C  0.35232184  0.30516328  0.16893024    -0.10900
C224        C  0.34802112  0.27818261  0.18770524    -0.12500
C225        C  0.45338075  0.14879318  0.16927755    -0.10900
C226        C  0.43069733  0.15302645  0.18804419    -0.12500
C227        C  0.14882166  0.19607813  0.16873847    -0.10900
C228        C  0.15300610  0.22291738  0.18755236    -0.12500
C229        C  0.19596143  0.04775537  0.16851586    -0.10900
C230        C  0.22284214  0.07037054  0.18734854    -0.12500
C231        C  0.27811090  0.43066323  0.18789408    -0.10900
C232        C  0.30505838  0.45336534  0.16913156    -0.12500
C233        C  0.34295439  0.06641548  0.43833068    -0.10900
C234        C  0.34946040  0.04493159  0.41974918    -0.12500
C235        C  0.34770478  0.07053656  0.06137813    -0.10900
C236        C  0.35200148  0.04791305  0.08019808    -0.12500
C237        C  0.22372137  0.15701818  0.43774249    -0.10900
C238        C  0.19568776  0.15040512  0.41912794    -0.12500
C239        C  0.43350976  0.27625058  0.43770637    -0.10900
C240        C  0.45486813  0.30417221  0.41904197    -0.12500
C241        C  0.19563830  0.14897085  0.07962337    -0.10900
C242        C  0.22250700  0.15317309  0.06082780    -0.12500
C243        C  0.43034856  0.27835166  0.06076777    -0.10900
C244        C  0.45303245  0.30533820  0.07952889    -0.12500
C245        C  0.06653991  0.22346222  0.43827331    -0.10900
C246        C  0.04507899  0.19540963  0.41969441    -0.12500
C247        C  0.04740416  0.19619109  0.08018891    -0.10900
C248        C  0.07002484  0.22304175  0.06135734    -0.12500
C249        C  0.15709304  0.43332389  0.43765568    -0.10900
C250        C  0.15046058  0.45467894  0.41900417    -0.12500
C251        C  0.27643984  0.34284666  0.43822667    -0.10900
C252        C  0.30436868  0.34934802  0.41959828    -0.12500
C253        C  0.14844441  0.45349743  0.07949805    -0.10900
C254        C  0.15265996  0.43079310  0.06073747    -0.12500
C255        C  0.30470582  0.35245297  0.08010311    -0.10900
C256        C  0.27775664  0.34816694  0.06130441    -0.12500
O257        O  0.13754286  0.25956825  0.53393226    -0.79400
C258        C  0.16132274  0.40602548  0.96018370     0.99900
O259        O  0.12601373  0.38006002  0.97509184    -0.68600
O260        O  0.09157556  0.29128436  0.96511561    -0.72200
Al261      Al  0.11019058  0.32764244  0.49932712     1.49000
C262        C  0.09400051  0.25524070  0.96063676     0.95200
O263        O  0.20880769  0.30035172  0.96531045    -0.78400
O264        O  0.24103278  0.37885074  0.53370458    -0.71900
Al265      Al  0.17270920  0.28300402  0.99962295     1.90100
O266        O  0.25411680  0.37418110  0.97539705    -0.71000
O267        O  0.19220465  0.41904650  0.52328875    -0.70900
O268        O  0.19977913  0.40848676  0.96487052    -0.76500
O269        O  0.12178344  0.36307046  0.53350540    -0.74700
O270        O  0.16675485  0.33360343  0.49936117    -1.10800
O271        O  0.08151039  0.27392169  0.52363741    -0.70000
C272        C  0.09776388  0.25378045  0.53869527     1.00700
C273        C  0.24483928  0.33876892  0.96062560     0.97100
Al274      Al  0.21737023  0.39017035  0.49930768     1.55600
O275        O  0.12009762  0.24609338  0.97559541    -0.74700
C276        C  0.15574645  0.40290011  0.53823188     1.01200
C277        C  0.24685898  0.34492016  0.53865609     0.96100
O278        O  0.22661748  0.30835704  0.52379390    -0.80000
O279        O  0.37850967  0.13794610  0.53380370    -0.79400
C280        C  0.25536654  0.16133069  0.96021232     0.99900
O281        O  0.24609244  0.12609311  0.97520285    -0.68600
O282        O  0.30035104  0.09159195  0.96521097    -0.72200
Al283      Al  0.28283127  0.11039546  0.49941477     1.49000
C284        C  0.33878752  0.09397560  0.96066302     0.95200
O285        O  0.40851819  0.20876917  0.96496212    -0.78400
O286        O  0.36273488  0.24141022  0.53338117    -0.71900
Al287      Al  0.39001471  0.17290201  0.99939370     1.90100
O288        O  0.38011345  0.25415875  0.97502077    -0.71000
O289        O  0.27362030  0.19253787  0.52322656    -0.70900
O290        O  0.29140059  0.19980181  0.96476694    -0.76500
O291        O  0.25920331  0.12217005  0.53360693    -0.74700
O292        O  0.33345409  0.16694996  0.99924734    -1.10800
O293        O  0.30803398  0.08186112  0.52374419    -0.70000
C294        C  0.34454259  0.09818706  0.53869762     1.00700
C295        C  0.40612011  0.24477601  0.96021070     0.97100
Al296      Al  0.32752249  0.21756372  0.49909958     1.55600
O297        O  0.37413506  0.12013796  0.97551466    -0.74700
C298        C  0.25337591  0.15615610  0.53827383     1.01200
C299        C  0.40254760  0.24730451  0.53823589     0.96100
O300        O  0.41876888  0.22697868  0.52338907    -0.80000
C301        C  0.00037083  0.45805482  0.62422448     0.04600
C302        C  0.45776916  0.45805069  0.62438921     0.04600
C303        C  0.45777193  0.00065119  0.62449803     0.04600
C304        C  0.00038145  0.04326059  0.62447446     0.04600
C305        C  0.04299305  0.04326713  0.62430730     0.04600
C306        C  0.04298488  0.00066096  0.62418978     0.04600
C307        C  0.36065283  0.02295297  0.60242463     0.05500
C308        C  0.40220896  0.02199218  0.60203863    -0.10700
C309        C  0.41296037  0.00065061  0.62457353     0.03000
C310        C  0.38105206  0.47930432  0.64716287    -0.09200
C311        C  0.33853745  0.47836656  0.64688272     0.05500
C312        C  0.32847452  0.00066663  0.62468030    -0.08600
H313        H  0.42655474  0.03843129  0.58443461     0.11100
H314        H  0.38909015  0.46284113  0.66471609     0.08600
H315        H  0.29587148  0.00066691  0.62471738     0.08400
C316        C  0.13996348  0.47845401  0.60176211     0.05500
C317        C  0.17229576  0.00066174  0.62398786    -0.10700
C318        C  0.16237667  0.02286218  0.64626910     0.03000
C319        C  0.11986030  0.02190310  0.64665803    -0.09200
C320        C  0.08780130  0.00066467  0.62410111     0.05500
C321        C  0.09839464  0.47941035  0.60148524    -0.08600
H322        H  0.20489684  0.00065383  0.62395021     0.11100
H323        H  0.11192968  0.03826711  0.66428241     0.08600
H324        H  0.07391737  0.46302085  0.58391658     0.08400
C325        C  0.16219848  0.14039086  0.60191415     0.05500
C326        C  0.11967409  0.09881186  0.60162589    -0.10700
C327        C  0.08782077  0.08808705  0.62426138     0.03000
C328        C  0.09863658  0.12003282  0.64685480    -0.09200
C329        C  0.14018309  0.16257391  0.64647763     0.05500
C330        C  0.17231154  0.17261912  0.62417350    -0.08600
H331        H  0.11158730  0.07442562  0.58402641     0.11100
H332        H  0.07433317  0.11200654  0.66449176     0.08600
H333        H  0.20490888  0.20523573  0.62414117     0.08400
C334        C  0.47827223  0.14027777  0.64698457     0.05500
C335        C  0.47919996  0.09869537  0.64723024    -0.10700
C336        C  0.00037793  0.08807114  0.62458176     0.03000
C337        C  0.02154886  0.12010185  0.60201841    -0.09200
C338        C  0.02254211  0.16262881  0.60243691     0.05500
C339        C  0.00043075  0.17258702  0.62475387    -0.08600
H340        H  0.46285422  0.07423594  0.66480217     0.11100
H341        H  0.03784964  0.11214686  0.58436860     0.08600
H342        H  0.00045209  0.20519854  0.62481438     0.08400
C343        C  0.36082004  0.33871562  0.64670157     0.05500
C344        C  0.40240799  0.38122683  0.64699170    -0.10700
C345        C  0.41295758  0.41323586  0.62443866     0.03000
C346        C  0.38084905  0.40258436  0.60192796    -0.09200
C347        C  0.33832665  0.36102347  0.60230508     0.05500
C348        C  0.32843959  0.32874924  0.62452502    -0.08600
H349        H  0.42692274  0.38919308  0.66452976     0.11100
H350        H  0.38874724  0.42700965  0.58435173     0.08600
H351        H  0.29582429  0.29614825  0.62455571     0.08400
C352        C  0.02273903  0.36097079  0.64621404     0.05500
C353        C  0.00041636  0.32878889  0.62395592    -0.10700
C354        C  0.47804711  0.33882637  0.60178308     0.03000
C355        C  0.47895320  0.38132337  0.60153608    -0.09200
C356        C  0.00035924  0.41324404  0.62412546     0.05500
C357        C  0.02176244  0.40251195  0.64663238    -0.08600
H358        H  0.00044042  0.29620103  0.62389471     0.11100
H359        H  0.46243522  0.38934543  0.58400455     0.08600
H360        H  0.03824011  0.42686272  0.66423718     0.08400
O361        O  0.25939434  0.13783092  0.71484590    -0.79400
C362        C  0.40583879  0.16144108  0.78859168     0.99900
O363        O  0.37989579  0.12617347  0.77363333    -0.68600
O364        O  0.29111477  0.09168343  0.78358057    -0.72200
Al365      Al  0.32748226  0.11040280  0.74938781     1.49000
C366        C  0.25505393  0.09406985  0.78807629     0.95200
O367        O  0.30012237  0.20884930  0.78358348    -0.78400
O368        O  0.37867303  0.24133348  0.71521112    -0.71900
Al369      Al  0.28280494  0.17288247  0.74920999     1.90100
O370        O  0.37395386  0.25422535  0.77354073    -0.71000
O371        O  0.41889720  0.19249362  0.72553329    -0.70900
O372        O  0.40828568  0.19989740  0.78396499    -0.76500
O373        O  0.36293382  0.12210050  0.71522100    -0.74700
O374        O  0.33342175  0.16695094  0.74944249    -1.10800
O375        O  0.27376316  0.08178529  0.72504789    -0.70000
C376        C  0.25360785  0.09806736  0.71002674     1.00700
C377        C  0.33852965  0.24487482  0.78831513     0.97100
Al378      Al  0.38998316  0.21757421  0.74956357     1.55600
O379        O  0.24588483  0.12018457  0.77315742    -0.74700
C380        C  0.40277313  0.15607245  0.71054425     1.01200
C381        C  0.34474764  0.24718885  0.71029169     0.96100
O382        O  0.30816837  0.22688373  0.72512821    -0.80000
O383        O  0.19955918  0.29143290  0.78372058    -0.79400
C384        C  0.09800680  0.34482575  0.70990751     0.99900
O385        O  0.08165965  0.30828736  0.72481483    -0.68600
O386        O  0.12195855  0.25948262  0.71486185    -0.72200
Al387      Al  0.11016953  0.28301336  0.74909643     1.49000
C388        C  0.15596200  0.25369369  0.71016267     0.95200
O389        O  0.24122284  0.36300890  0.71521990    -0.78400
O390        O  0.20855686  0.40858965  0.78371848    -0.71900
Al391      Al  0.21734999  0.32768462  0.74944865     1.90100
O392        O  0.22678577  0.41900621  0.72530427    -0.71000
O393        O  0.11991900  0.37425147  0.77313115    -0.70900
O394        O  0.13776367  0.37877778  0.71484699    -0.76500
O395        O  0.09134678  0.30044608  0.78333443    -0.74700
O396        O  0.16673615  0.33362436  0.74932899    -1.10800
O397        O  0.12583873  0.24619467  0.77324360    -0.70000
C398        C  0.16107360  0.25539583  0.78822897     1.00700
C399        C  0.24710376  0.40282301  0.71041789     0.97100
Al400      Al  0.17269860  0.39018558  0.74926760     1.55600
O401        O  0.19233892  0.27388576  0.72523115    -0.74700
C402        C  0.09373729  0.33887324  0.78793638     1.01200
C403        C  0.24455652  0.40616210  0.78845861     0.96100
O404        O  0.25393103  0.38018276  0.77361148    -0.80000
C405        C  0.45705775  0.99990564  0.87448230     0.04600
C406        C  0.45705306  0.45715963  0.87437887     0.04600
C407        C  0.49980493  0.45716581  0.87423079     0.04600
C408        C  0.04255812  0.49991686  0.87421150     0.04600
C409        C  0.04256162  0.04266266  0.87430611     0.04600
C410        C  0.99981322  0.04265705  0.87445158     0.04600
C411        C  0.14045505  0.47831406  0.89651147     0.05500
C412        C  0.17211067  0.49980369  0.87397064    -0.10700
C413        C  0.16177686  0.02136368  0.85151426     0.03000
C414        C  0.11934679  0.02080038  0.85133692    -0.09200
C415        C  0.08754632  0.49990766  0.87412846     0.05500
C416        C  0.09864737  0.47898181  0.89684445    -0.08600
H417        H  0.20470775  0.49977482  0.87391435     0.11100
H418        H  0.11121176  0.03696116  0.83365437     0.08600
H419        H  0.07454233  0.46287949  0.91459494     0.08400
C420        C  0.35925569  0.02127396  0.89721699     0.05500
C421        C  0.40111317  0.02068938  0.89739425    -0.10700
C422        C  0.41205543  0.49989063  0.87457707     0.03000
C423        C  0.38006824  0.47907244  0.85183771    -0.09200
C424        C  0.33759561  0.47840882  0.85216991     0.05500
C425        C  0.32739756  0.49981107  0.87473483    -0.08600
H426        H  0.42538205  0.03677303  0.91509350     0.11100
H427        H  0.38809897  0.46304570  0.83406721     0.08600
H428        H  0.29477647  0.49979200  0.87478882     0.08400
C429        C  0.47818601  0.14053821  0.85221029     0.05500
C430        C  0.49973572  0.17221223  0.87474350    -0.10700
C431        C  0.02134813  0.16189927  0.89717845     0.03000
C432        C  0.02078206  0.11946996  0.89733932    -0.09200
C433        C  0.49981542  0.08764526  0.87455389     0.05500
C434        C  0.47883696  0.09872866  0.85186127    -0.08600
H435        H  0.49970910  0.20480816  0.87481132     0.11100
H436        H  0.03698765  0.11134997  0.91500477     0.08600
H437        H  0.46268079  0.07460676  0.83411387     0.08400
C438        C  0.14030532  0.16203520  0.85172769     0.05500
C439        C  0.09845097  0.11958395  0.85151371    -0.10700
C440        C  0.08755645  0.08765912  0.87425710     0.03000
C441        C  0.11958226  0.09865793  0.89695907    -0.09200
C442        C  0.16203958  0.14049453  0.89666099     0.05500
C443        C  0.17219272  0.17227407  0.87417315    -0.08600
H444        H  0.07415708  0.11152232  0.83383703     0.11100
H445        H  0.11159234  0.07445544  0.91467159     0.08600
H446        H  0.20481424  0.20488728  0.87414355     0.08400
C447        C  0.02112530  0.35935054  0.85143769     0.05500
C448        C  0.49973127  0.32752624  0.87393221    -0.10700
C449        C  0.47839736  0.33775415  0.89652362     0.03000
C450        C  0.47906252  0.38022190  0.89687158    -0.09200
C451        C  0.49980158  0.41217222  0.87412116     0.05500
C452        C  0.02053526  0.40120343  0.85127707    -0.08600
H453        H  0.49970819  0.29490658  0.87386602     0.11100
H454        H  0.46308763  0.38827333  0.91466202     0.08600
H455        H  0.03656235  0.42544673  0.83357032     0.08400
C456        C  0.35906147  0.33782788  0.85193959     0.05500
C457        C  0.32743147  0.32751306  0.87451248    -0.10700
C458        C  0.33782448  0.35924686  0.89704080     0.03000
C459        C  0.38028823  0.40109048  0.89725222    -0.09200
C460        C  0.41204835  0.41215975  0.87442518     0.05500
C461        C  0.40088302  0.38030269  0.85164078    -0.08600
H462        H  0.29482303  0.29489266  0.87454407     0.11100
H463        H  0.38847719  0.42525490  0.91498892     0.08600
H464        H  0.42496196  0.38842540  0.83386755     0.08400
C465        C  0.15673446  0.22367075  0.81064579    -0.10900
C466        C  0.15012640  0.19561655  0.82923822    -0.12500
C467        C  0.04472249  0.34952598  0.82887835    -0.10900
C468        C  0.06617495  0.34300639  0.81028156    -0.12500
C469        C  0.27604301  0.43349881  0.81098637    -0.10900
C470        C  0.30398842  0.45484424  0.82965456    -0.12500
C471        C  0.43313579  0.15717144  0.81110509    -0.10900
C472        C  0.45451008  0.15053191  0.82974076    -0.12500
C473        C  0.22329305  0.06655386  0.81042004    -0.10900
C474        C  0.19527138  0.04506954  0.82899859    -0.12500
C475        C  0.34257649  0.27639423  0.81076373    -0.10900
C476        C  0.34908177  0.30430546  0.82940885    -0.12500
C477        C  0.04774339  0.35233300  0.66841597    -0.10900
C478        C  0.07037900  0.34803213  0.68722776    -0.12500
C479        C  0.35232167  0.30516308  0.66893009    -0.10900
C480        C  0.34802094  0.27818246  0.68770514    -0.12500
C481        C  0.45338068  0.14879301  0.66927750    -0.10900
C482        C  0.43069723  0.15302631  0.68804409    -0.12500
C483        C  0.14882159  0.19607808  0.66873852    -0.10900
C484        C  0.15300611  0.22291736  0.68755242    -0.12500
C485        C  0.19596151  0.04775533  0.66851591    -0.10900
C486        C  0.22284216  0.07037052  0.68734860    -0.12500
C487        C  0.27811085  0.43066326  0.68789396    -0.10900
C488        C  0.30505830  0.45336531  0.66913140    -0.12500
C489        C  0.34295456  0.06641559  0.93833056    -0.10900
C490        C  0.34946045  0.04493172  0.91974899    -0.12500
C491        C  0.34770458  0.07053642  0.56137805    -0.10900
C492        C  0.35200132  0.04791285  0.58019794    -0.12500
C493        C  0.22372156  0.15701831  0.93774252    -0.10900
C494        C  0.19568799  0.15040536  0.91912797    -0.12500
C495        C  0.43350982  0.27625050  0.93770634    -0.10900
C496        C  0.45486829  0.30417227  0.91904205    -0.12500
C497        C  0.19563810  0.14897071  0.57962339    -0.10900
C498        C  0.22250674  0.15317296  0.56082777    -0.12500
C499        C  0.43034834  0.27835163  0.56076780    -0.10900
C500        C  0.45303214  0.30533821  0.57952890    -0.12500
C501        C  0.06653993  0.22346228  0.93827317    -0.10900
C502        C  0.04507897  0.19540982  0.91969420    -0.12500
C503        C  0.04740400  0.19619097  0.58018888    -0.10900
C504        C  0.07002472  0.22304170  0.56135737    -0.12500
C505        C  0.15709314  0.43332407  0.93765575    -0.10900
C506        C  0.15046058  0.45467902  0.91900424    -0.12500
C507        C  0.27643992  0.34284681  0.93822658    -0.10900
C508        C  0.30436881  0.34934820  0.91959822    -0.12500
C509        C  0.14844433  0.45349738  0.57949807    -0.10900
C510        C  0.15265972  0.43079299  0.56073748    -0.12500
C511        C  0.30470570  0.35245292  0.58010312    -0.10900
C512        C  0.27775643  0.34816679  0.56130445    -0.12500
O513        O  0.13754294  0.75956828  0.03393220    -0.79400
C514        C  0.16132264  0.90602535  0.46018368     0.99900
O515        O  0.12601363  0.88005995  0.47509184    -0.68600
O516        O  0.09157552  0.79128429  0.46511563    -0.72200
Al517      Al  0.11019078  0.82764253  0.99932710     1.49000
C518        C  0.09400046  0.75524061  0.46063684     0.95200
O519        O  0.20880758  0.80035165  0.46531055    -0.78400
O520        O  0.24103290  0.87885079  0.03370454    -0.71900
Al521      Al  0.17270910  0.78300395  0.49962302     1.90100
O522        O  0.25411673  0.87418102  0.47539718    -0.71000
O523        O  0.19220478  0.91904656  0.02328871    -0.70900
O524        O  0.19977905  0.90848666  0.46487055    -0.76500
O525        O  0.12178361  0.86307050  0.03350536    -0.74700
O526        O  0.16675504  0.83360352  0.99936113    -1.10800
O527        O  0.08151052  0.77392177  0.02363739    -0.70000
C528        C  0.09776398  0.75378047  0.03869522     1.00700
C529        C  0.24483915  0.83876885  0.46062570     0.97100
Al530      Al  0.21737038  0.89017045  0.99930764     1.55600
O531        O  0.12009751  0.74609326  0.47559552    -0.74700
C532        C  0.15574657  0.90290019  0.03823182     1.01200
C533        C  0.24685912  0.84492020  0.03865607     0.96100
O534        O  0.22661770  0.80835712  0.02379384    -0.80000
O535        O  0.37850987  0.63794617  0.03380369    -0.79400
C536        C  0.25536636  0.66133063  0.46021233     0.99900
O537        O  0.24609230  0.62609304  0.47520282    -0.68600
O538        O  0.30035093  0.59159196  0.46521095    -0.72200
Al539      Al  0.28283146  0.61039550  0.99941481     1.49000
C540        C  0.33878742  0.59397558  0.46066303     0.95200
O541        O  0.40851813  0.70876904  0.46496220    -0.78400
O542        O  0.36273495  0.74141018  0.03338114    -0.71900
Al543      Al  0.39001451  0.67290185  0.49939378     1.90100
O544        O  0.38011337  0.75415865  0.47502075    -0.71000
O545        O  0.27362046  0.69253787  0.02322654    -0.70900
O546        O  0.29140049  0.69980171  0.46476691    -0.76500
O547        O  0.25920351  0.62217009  0.03360697    -0.74700
O548        O  0.33345389  0.66694986  0.49924738    -1.10800
O549        O  0.30803420  0.58186111  0.02374425    -0.70000
C550        C  0.34454281  0.59818710  0.03869765     1.00700
C551        C  0.40611999  0.74477586  0.46021069     0.97100
Al552      Al  0.32752262  0.71756373  0.99909956     1.55600
O553        O  0.37413490  0.62013777  0.47551476    -0.74700
C554        C  0.25337603  0.65615610  0.03827381     1.01200
C555        C  0.40254772  0.74730453  0.03823582     0.96100
O556        O  0.41876903  0.72697874  0.02338898    -0.80000
C557        C  0.00037086  0.95805488  0.12422441     0.04600
C558        C  0.45776933  0.95805071  0.12438924     0.04600
C559        C  0.45777206  0.50065134  0.12449816     0.04600
C560        C  0.00038163  0.54326071  0.12447453     0.04600
C561        C  0.04299315  0.54326729  0.12430721     0.04600
C562        C  0.04298496  0.50066113  0.12418964     0.04600
C563        C  0.36065276  0.52295295  0.10242484     0.05500
C564        C  0.40220929  0.52199248  0.10203856    -0.10700
C565        C  0.41296034  0.50065054  0.12457381     0.03000
C566        C  0.38105204  0.97930457  0.14716282    -0.09200
C567        C  0.33853750  0.97836655  0.14688296     0.05500
C568        C  0.32847460  0.50066672  0.12468046    -0.08600
H569        H  0.42655393  0.53843063  0.08443532     0.11100
H570        H  0.38909026  0.96284048  0.16471678     0.08600
H571        H  0.29587137  0.50066675  0.12471762     0.08400
C572        C  0.13996347  0.97845399  0.10176200     0.05500
C573        C  0.17229619  0.50066173  0.12398787    -0.10700
C574        C  0.16237649  0.52286221  0.14626905     0.03000
C575        C  0.11986017  0.52190324  0.14665808    -0.09200
C576        C  0.08780128  0.50066479  0.12410100     0.05500
C577        C  0.09839490  0.97941057  0.10148524    -0.08600
H578        H  0.20489571  0.50065391  0.12395019     0.11100
H579        H  0.11192961  0.53826706  0.16428206     0.08600
H580        H  0.07391712  0.96302067  0.08391608     0.08400
C581        C  0.16219863  0.64039096  0.10191407     0.05500
C582        C  0.11967421  0.59881202  0.10162577    -0.10700
C583        C  0.08782095  0.58808721  0.12426124     0.03000
C584        C  0.09863655  0.62003285  0.14685490    -0.09200
C585        C  0.14018324  0.66257400  0.14647755     0.05500
C586        C  0.17231171  0.67261923  0.12417347    -0.08600
H587        H  0.11158757  0.57442583  0.08402630     0.11100
H588        H  0.07433371  0.61200686  0.16449133     0.08600
H589        H  0.20490882  0.70523568  0.12414110     0.08400
C590        C  0.47827235  0.64027795  0.14698475     0.05500
C591        C  0.47920029  0.59869588  0.14723008    -0.10700
C592        C  0.00037804  0.58807120  0.12458193     0.03000
C593        C  0.02154895  0.62010189  0.10201839    -0.09200
C594        C  0.02254212  0.66262883  0.10243697     0.05500
C595        C  0.00043078  0.67258710  0.12475389    -0.08600
H596        H  0.46285370  0.57423526  0.16480292     0.11100
H597        H  0.03784943  0.61214686  0.08436880     0.08600
H598        H  0.00045212  0.70519845  0.12481450     0.08400
C599        C  0.36082026  0.83871573  0.14670169     0.05500
C600        C  0.40240820  0.88122699  0.14699185    -0.10700
C601        C  0.41295774  0.91323589  0.12443880     0.03000
C602        C  0.38084937  0.90258475  0.10192776    -0.09200
C603        C  0.33832685  0.86102353  0.10230516     0.05500
C604        C  0.32843966  0.82874911  0.12452504    -0.08600
H605        H  0.42692282  0.88919318  0.16452982     0.11100
H606        H  0.38874716  0.92700914  0.08435238     0.08600
H607        H  0.29582488  0.79614885  0.12455587     0.08400
C608        C  0.02273905  0.86097084  0.14621399     0.05500
C609        C  0.00041643  0.82878909  0.12395594    -0.10700
C610        C  0.47804730  0.83882621  0.10178303     0.03000
C611        C  0.47895341  0.88132333  0.10153604    -0.09200
C612        C  0.00035925  0.91324407  0.12412535     0.05500
C613        C  0.02176247  0.90251204  0.14663238    -0.08600
H614        H  0.00044062  0.79620094  0.12389474     0.11100
H615        H  0.46243524  0.88934530  0.08400437     0.08600
H616        H  0.03824016  0.92686260  0.16423696     0.08400
O617        O  0.25939457  0.63783103  0.21484581    -0.79400
C618        C  0.40583877  0.66144109  0.28859178     0.99900
O619        O  0.37989581  0.62617350  0.27363340    -0.68600
O620        O  0.29111470  0.59168341  0.28358059    -0.72200
Al621      Al  0.32748231  0.61040286  0.24938784     1.49000
C622        C  0.25505382  0.59406978  0.28807622     0.95200
O623        O  0.30012235  0.70884928  0.28358352    -0.78400
O624        O  0.37867318  0.74133352  0.21521115    -0.71900
Al625      Al  0.28280500  0.67288251  0.24920996     1.90100
O626        O  0.37395382  0.75422533  0.27354075    -0.71000
O627        O  0.41889727  0.69249364  0.22553344    -0.70900
O628        O  0.40828566  0.69989740  0.28396507    -0.76500
O629        O  0.36293396  0.62210055  0.21522104    -0.74700
O630        O  0.33342182  0.66695103  0.24944248    -1.10800
O631        O  0.27376319  0.58178531  0.22504788    -0.70000
C632        C  0.25360799  0.59806743  0.21002665     1.00700
C633        C  0.33852959  0.74487483  0.28831514     0.97100
Al634      Al  0.38998322  0.71757423  0.24956361     1.55600
O635        O  0.24588475  0.62018448  0.27315732    -0.74700
C636        C  0.40277321  0.65607258  0.21054430     1.01200
C637        C  0.34474783  0.74718896  0.21029174     0.96100
O638        O  0.30816850  0.72688382  0.22512821    -0.80000
O639        O  0.19955910  0.79143275  0.28372060    -0.79400
C640        C  0.09800687  0.84482583  0.20990750     0.99900
O641        O  0.08165975  0.80828738  0.22481477    -0.68600
O642        O  0.12195864  0.75948263  0.21486178    -0.72200
Al643      Al  0.11016958  0.78301333  0.24909636     1.49000
C644        C  0.15596209  0.75369373  0.21016261     0.95200
O645        O  0.24122296  0.86300899  0.21521991    -0.78400
O646        O  0.20855679  0.90858954  0.28371854    -0.71900
Al647      Al  0.21735001  0.82768460  0.24944866     1.90100
O648        O  0.22678580  0.91900622  0.22530436    -0.71000
O649        O  0.11991903  0.87425138  0.27313115    -0.70900
O650        O  0.13776374  0.87877782  0.21484700    -0.76500
O651        O  0.09134677  0.80044597  0.28333435    -0.74700
O652        O  0.16673616  0.83362434  0.24932895    -1.10800
O653        O  0.12583869  0.74619457  0.27324354    -0.70000
C654        C  0.16107352  0.75539569  0.28822894     1.00700
C655        C  0.24710382  0.90282306  0.21041797     0.97100
Al656      Al  0.17269861  0.89018554  0.24926764     1.55600
O657        O  0.19233898  0.77388579  0.22523112    -0.74700
C658        C  0.09373723  0.83887310  0.28793630     1.01200
C659        C  0.24455650  0.90616206  0.28845868     0.96100
O660        O  0.25393105  0.88018274  0.27361155    -0.80000
C661        C  0.45705772  0.49990555  0.37448235     0.04600
C662        C  0.45705295  0.95715951  0.37437900     0.04600
C663        C  0.49980471  0.95716559  0.37423067     0.04600
C664        C  0.04255795  0.99991658  0.37421145     0.04600
C665        C  0.04256149  0.54266246  0.37430604     0.04600
C666        C  0.99981311  0.54265692  0.37445169     0.04600
C667        C  0.14045501  0.97831399  0.39651135     0.05500
C668        C  0.17211054  0.99980368  0.37397057    -0.10700
C669        C  0.16177681  0.52136374  0.35151413     0.03000
C670        C  0.11934683  0.52080023  0.35133702    -0.09200
C671        C  0.08754620  0.99990753  0.37412831     0.05500
C672        C  0.09864724  0.97898169  0.39684441    -0.08600
H673        H  0.20470787  0.99977487  0.37391423     0.11100
H674        H  0.11121141  0.53696134  0.33365387     0.08600
H675        H  0.07454236  0.96287945  0.41459465     0.08400
C676        C  0.35925573  0.52127382  0.39721718     0.05500
C677        C  0.40111283  0.52068898  0.39739421    -0.10700
C678        C  0.41205543  0.99989069  0.37457730     0.03000
C679        C  0.38006829  0.97907242  0.35183769    -0.09200
C680        C  0.33759553  0.97840882  0.35217015     0.05500
C681        C  0.32739745  0.99981086  0.37473507    -0.08600
H682        H  0.42538275  0.53677340  0.41509408     0.11100
H683        H  0.38809885  0.96304605  0.33406772     0.08600
H684        H  0.29477632  0.99979197  0.37478909     0.08400
C685        C  0.47818609  0.64053833  0.35221051     0.05500
C686        C  0.49973561  0.67221222  0.37474364    -0.10700
C687        C  0.02134818  0.66189929  0.39717861     0.03000
C688        C  0.02078208  0.61946999  0.39733936    -0.09200
C689        C  0.49981550  0.58764536  0.37455411     0.05500
C690        C  0.47883653  0.59872807  0.35186094    -0.08600
H691        H  0.49970924  0.70480807  0.37481153     0.11100
H692        H  0.03698790  0.61135014  0.41500493     0.08600
H693        H  0.46268172  0.57460820  0.33411496     0.08400
C694        C  0.14030505  0.66203490  0.35172759     0.05500
C695        C  0.09845077  0.61958368  0.35151363    -0.10700
C696        C  0.08755623  0.58765884  0.37425705     0.03000
C697        C  0.11958205  0.59865765  0.39695908    -0.09200
C698        C  0.16203932  0.64049422  0.39666092     0.05500
C699        C  0.17219291  0.67227422  0.37417306    -0.08600
H700        H  0.07415682  0.61152191  0.33383702     0.11100
H701        H  0.11159216  0.57445517  0.41467141     0.08600
H702        H  0.20481315  0.70488620  0.37414351     0.08400
C703        C  0.02112537  0.85935032  0.35143753     0.05500
C704        C  0.49973113  0.82752642  0.37393208    -0.10700
C705        C  0.47839735  0.83775385  0.39652345     0.03000
C706        C  0.47906225  0.88022179  0.39687168    -0.09200
C707        C  0.49980149  0.91217200  0.37412094     0.05500
C708        C  0.02053511  0.90120293  0.35127726    -0.08600
H709        H  0.49970827  0.79490546  0.37386583     0.11100
H710        H  0.46308805  0.88827302  0.41466150     0.08600
H711        H  0.03656293  0.92544712  0.33356958     0.08400
C712        C  0.35906110  0.83782763  0.35193977     0.05500
C713        C  0.32743169  0.82751336  0.37451258    -0.10700
C714        C  0.33782412  0.85924666  0.39704095     0.03000
C715        C  0.38028789  0.90109014  0.39725209    -0.09200
C716        C  0.41204810  0.91215961  0.37442540     0.05500
C717        C  0.40088309  0.88030265  0.35164078    -0.08600
H718        H  0.29482161  0.79489146  0.37454423     0.11100
H719        H  0.38847707  0.92525517  0.41498950     0.08600
H720        H  0.42496132  0.88842523  0.33386812     0.08400
C721        C  0.15673433  0.72367063  0.31064574    -0.10900
C722        C  0.15012620  0.69561639  0.32923814    -0.12500
C723        C  0.04472246  0.84952577  0.32887829    -0.10900
C724        C  0.06617500  0.84300624  0.31028152    -0.12500
C725        C  0.27604302  0.93349882  0.31098646    -0.10900
C726        C  0.30398833  0.95484427  0.32965471    -0.12500
C727        C  0.43313587  0.65717148  0.31110518    -0.10900
C728        C  0.45451014  0.65053195  0.32974085    -0.12500
C729        C  0.22329302  0.56655392  0.31041997    -0.10900
C730        C  0.19527133  0.54506958  0.32899849    -0.12500
C731        C  0.34257634  0.77639415  0.31076378    -0.10900
C732        C  0.34908154  0.80430532  0.32940893    -0.12500
C733        C  0.04774338  0.85233309  0.16841596    -0.10900
C734        C  0.07037910  0.84803232  0.18722773    -0.12500
C735        C  0.35232194  0.80516322  0.16893021    -0.10900
C736        C  0.34802118  0.77818255  0.18770522    -0.12500
C737        C  0.45338078  0.64879325  0.16927754    -0.10900
C738        C  0.43069738  0.65302645  0.18804421    -0.12500
C739        C  0.14882168  0.69607814  0.16873846    -0.10900
C740        C  0.15300617  0.72291741  0.18755235    -0.12500
C741        C  0.19596141  0.54775541  0.16851587    -0.10900
C742        C  0.22284216  0.57037058  0.18734853    -0.12500
C743        C  0.27811088  0.93066325  0.18789408    -0.10900
C744        C  0.30505836  0.95336537  0.16913156    -0.12500
C745        C  0.34295452  0.56641549  0.43833067    -0.10900
C746        C  0.34946044  0.54493159  0.41974913    -0.12500
C747        C  0.34770467  0.57053648  0.06137812    -0.10900
C748        C  0.35200138  0.54791300  0.08019808    -0.12500
C749        C  0.22372143  0.65701821  0.43774247    -0.10900
C750        C  0.19568782  0.65040520  0.41912793    -0.12500
C751        C  0.43350973  0.77625041  0.43770634    -0.10900
C752        C  0.45486819  0.80417200  0.41904194    -0.12500
C753        C  0.19563829  0.64897082  0.07962337    -0.10900
C754        C  0.22250697  0.65317302  0.06082780    -0.12500
C755        C  0.43034847  0.77835165  0.06076773    -0.10900
C756        C  0.45303238  0.80533818  0.07952884    -0.12500
C757        C  0.06653989  0.72346223  0.43827328    -0.10900
C758        C  0.04507892  0.69540971  0.41969436    -0.12500
C759        C  0.04740411  0.69619102  0.08018887    -0.10900
C760        C  0.07002485  0.72304173  0.06135734    -0.12500
C761        C  0.15709302  0.93332388  0.43765568    -0.10900
C762        C  0.15046049  0.95467884  0.41900414    -0.12500
C763        C  0.27643973  0.84284667  0.43822671    -0.10900
C764        C  0.30436860  0.84934807  0.41959833    -0.12500
C765        C  0.14844432  0.95349740  0.07949801    -0.10900
C766        C  0.15265989  0.93079304  0.06073747    -0.12500
C767        C  0.30470582  0.85245296  0.08010313    -0.10900
C768        C  0.27775663  0.84816684  0.06130441    -0.12500
O769        O  0.13754288  0.75956831  0.53393228    -0.79400
C770        C  0.16132285  0.90602553  0.96018370     0.99900
O771        O  0.12601384  0.88006003  0.97509182    -0.68600
O772        O  0.09157562  0.79128437  0.96511558    -0.72200
Al773      Al  0.11019059  0.82764241  0.49932712     1.49000
C774        C  0.09400052  0.75524069  0.96063676     0.95200
O775        O  0.20880768  0.80035170  0.96531045    -0.78400
O776        O  0.24103276  0.87885079  0.53370459    -0.71900
Al777      Al  0.17270921  0.78300400  0.99962295     1.90100
O778        O  0.25411682  0.87418104  0.97539709    -0.71000
O779        O  0.19220459  0.91904647  0.52328875    -0.70900
O780        O  0.19977923  0.90848679  0.96487054    -0.76500
O781        O  0.12178339  0.86307037  0.53350538    -0.74700
O782        O  0.16675488  0.83360346  0.49936117    -1.10800
O783        O  0.08151037  0.77392165  0.52363740    -0.70000
C784        C  0.09776389  0.75378048  0.53869528     1.00700
C785        C  0.24483930  0.83876888  0.96062561     0.97100
Al786      Al  0.21737023  0.89017040  0.49930768     1.55600
O787        O  0.12009764  0.74609337  0.97559540    -0.74700
C788        C  0.15574638  0.90290006  0.53823185     1.01200
C789        C  0.24685898  0.84492020  0.53865611     0.96100
O790        O  0.22661754  0.80835709  0.52379390    -0.80000
O791        O  0.37850969  0.63794610  0.53380374    -0.79400
C792        C  0.25536649  0.66133058  0.96021232     0.99900
O793        O  0.24609234  0.62609302  0.97520288    -0.68600
O794        O  0.30035096  0.59159189  0.96521098    -0.72200
Al795      Al  0.28283134  0.61039544  0.49941476     1.49000
C796        C  0.33878745  0.59397555  0.96066301     0.95200
O797        O  0.40851815  0.70876916  0.96496212    -0.78400
O798        O  0.36273491  0.74141015  0.53338117    -0.71900
Al799      Al  0.39001463  0.67290196  0.99939370     1.90100
O800        O  0.38011337  0.75415871  0.97502075    -0.71000
O801        O  0.27362037  0.69253784  0.52322658    -0.70900
O802        O  0.29140053  0.69980170  0.96476695    -0.76500
O803        O  0.25920338  0.62216999  0.53360692    -0.74700
O804        O  0.33345402  0.66694992  0.99924733    -1.10800
O805        O  0.30803406  0.58186109  0.52374418    -0.70000
C806        C  0.34454264  0.59818703  0.53869761     1.00700
C807        C  0.40612006  0.74477600  0.96021070     0.97100
Al808      Al  0.32752255  0.71756371  0.49909958     1.55600
O809        O  0.37413498  0.62013791  0.97551466    -0.74700
C810        C  0.25337593  0.65615603  0.53827381     1.01200
C811        C  0.40254767  0.74730447  0.53823586     0.96100
O812        O  0.41876897  0.72697866  0.52338903    -0.80000
C813        C  0.00037077  0.95805473  0.62422448     0.04600
C814        C  0.45776916  0.95805060  0.62438923     0.04600
C815        C  0.45777192  0.50065127  0.62449803     0.04600
C816        C  0.00038157  0.54326066  0.62447445     0.04600
C817        C  0.04299312  0.54326722  0.62430727     0.04600
C818        C  0.04298491  0.50066103  0.62418979     0.04600
C819        C  0.36065281  0.52295300  0.60242465     0.05500
C820        C  0.40220893  0.52199220  0.60203865    -0.10700
C821        C  0.41296036  0.50065067  0.62457356     0.03000
C822        C  0.38105209  0.97930434  0.64716287    -0.09200
C823        C  0.33853747  0.97836660  0.64688272     0.05500
C824        C  0.32847452  0.50066665  0.62468031    -0.08600
H825        H  0.42655471  0.53843132  0.58443462     0.11100
H826        H  0.38909014  0.96284117  0.66471609     0.08600
H827        H  0.29587142  0.50066693  0.62471737     0.08400
C828        C  0.13996360  0.97845394  0.60176206     0.05500
C829        C  0.17229617  0.50066176  0.62398788    -0.10700
C830        C  0.16237649  0.52286222  0.64626915     0.03000
C831        C  0.11986020  0.52190310  0.64665809    -0.09200
C832        C  0.08780126  0.50066478  0.62410118     0.05500
C833        C  0.09839483  0.97941033  0.60148538    -0.08600
H834        H  0.20489566  0.50065388  0.62395024     0.11100
H835        H  0.11192951  0.53826714  0.66428248     0.08600
H836        H  0.07391709  0.96302054  0.58391616     0.08400
C837        C  0.16219855  0.64039089  0.60191407     0.05500
C838        C  0.11967411  0.59881188  0.60162581    -0.10700
C839        C  0.08782091  0.58808709  0.62426130     0.03000
C840        C  0.09863649  0.62003275  0.64685495    -0.09200
C841        C  0.14018323  0.66257397  0.64647755     0.05500
C842        C  0.17231159  0.67261919  0.62417343    -0.08600
H843        H  0.11158743  0.57442568  0.58402635     0.11100
H844        H  0.07433381  0.61200681  0.66449131     0.08600
H845        H  0.20490891  0.70523578  0.62414107     0.08400
C846        C  0.47827223  0.64027775  0.64698460     0.05500
C847        C  0.47919996  0.59869540  0.64723025    -0.10700
C848        C  0.00037803  0.58807119  0.62458174     0.03000
C849        C  0.02154890  0.62010190  0.60201840    -0.09200
C850        C  0.02254211  0.66262876  0.60243688     0.05500
C851        C  0.00043067  0.67258704  0.62475384    -0.08600
H852        H  0.46285427  0.57423597  0.66480222     0.11100
H853        H  0.03784973  0.61214691  0.58436851     0.08600
H854        H  0.00045197  0.70519811  0.62481438     0.08400
C855        C  0.36082002  0.83871551  0.64670162     0.05500
C856        C  0.40240784  0.88122676  0.64699169    -0.10700
C857        C  0.41295757  0.91323576  0.62443874     0.03000
C858        C  0.38084913  0.90258436  0.60192791    -0.09200
C859        C  0.33832664  0.86102337  0.60230511     0.05500
C860        C  0.32843988  0.82874931  0.62452498    -0.08600
H861        H  0.42692291  0.88919303  0.66452998     0.11100
H862        H  0.38874719  0.92700953  0.58435193     0.08600
H863        H  0.29582383  0.79614778  0.62455582     0.08400
C864        C  0.02273895  0.86097054  0.64621404     0.05500
C865        C  0.00041624  0.82878920  0.62395596    -0.10700
C866        C  0.47804729  0.83882606  0.60178307     0.03000
C867        C  0.47895330  0.88132324  0.60153606    -0.09200
C868        C  0.00035921  0.91324388  0.62412545     0.05500
C869        C  0.02176243  0.90251188  0.64663239    -0.08600
H870        H  0.00044036  0.79619972  0.62389470     0.11100
H871        H  0.46243528  0.88934509  0.58400457     0.08600
H872        H  0.03824013  0.92686252  0.66423713     0.08400
O873        O  0.25939434  0.63783095  0.71484590    -0.79400
C874        C  0.40583882  0.66144113  0.78859168     0.99900
O875        O  0.37989582  0.62617352  0.77363332    -0.68600
O876        O  0.29111477  0.59168344  0.78358058    -0.72200
Al877      Al  0.32748225  0.61040283  0.74938781     1.49000
C878        C  0.25505389  0.59406979  0.78807627     0.95200
O879        O  0.30012233  0.70884929  0.78358349    -0.78400
O880        O  0.37867298  0.74133346  0.71521113    -0.71900
Al881      Al  0.28280490  0.67288247  0.74921000     1.90100
O882        O  0.37395379  0.75422534  0.77354072    -0.71000
O883        O  0.41889718  0.69249366  0.72553330    -0.70900
O884        O  0.40828567  0.69989743  0.78396499    -0.76500
O885        O  0.36293381  0.62210055  0.71522099    -0.74700
O886        O  0.33342172  0.66695096  0.74944248    -1.10800
O887        O  0.27376316  0.58178533  0.72504789    -0.70000
C888        C  0.25360791  0.59806742  0.71002670     1.00700
C889        C  0.33852961  0.74487477  0.78831517     0.97100
Al890      Al  0.38998313  0.71757422  0.74956356     1.55600
O891        O  0.24588476  0.62018450  0.77315742    -0.74700
C892        C  0.40277313  0.65607250  0.71054425     1.01200
C893        C  0.34474761  0.74718885  0.71029172     0.96100
O894        O  0.30816833  0.72688376  0.72512824    -0.80000
O895        O  0.19955913  0.79143285  0.78372057    -0.79400
C896        C  0.09800680  0.84482567  0.70990751     0.99900
O897        O  0.08165968  0.80828728  0.72481483    -0.68600
O898        O  0.12195851  0.75948246  0.71486184    -0.72200
Al899      Al  0.11016952  0.78301328  0.74909643     1.49000
C900        C  0.15596200  0.75369363  0.71016265     0.95200
O901        O  0.24122295  0.86300893  0.71521991    -0.78400
O902        O  0.20855685  0.90858960  0.78371846    -0.71900
Al903      Al  0.21735000  0.82768458  0.74944865     1.90100
O904        O  0.22678575  0.91900616  0.72530427    -0.71000
O905        O  0.11991902  0.87425141  0.77313114    -0.70900
O906        O  0.13776363  0.87877772  0.71484698    -0.76500
O907        O  0.09134675  0.80044603  0.78333441    -0.74700
O908        O  0.16673613  0.83362430  0.74932898    -1.10800
O909        O  0.12583869  0.74619458  0.77324361    -0.70000
C910        C  0.16107356  0.75539579  0.78822899     1.00700
C911        C  0.24710377  0.90282299  0.71041788     0.97100
Al912      Al  0.17269858  0.89018552  0.74926759     1.55600
O913        O  0.19233892  0.77388573  0.72523114    -0.74700
C914        C  0.09373727  0.83887319  0.78793636     1.01200
C915        C  0.24455651  0.90616207  0.78845861     0.96100
O916        O  0.25393102  0.88018270  0.77361150    -0.80000
C917        C  0.45705779  0.49990565  0.87448227     0.04600
C918        C  0.45705304  0.95715965  0.87437889     0.04600
C919        C  0.49980492  0.95716584  0.87423078     0.04600
C920        C  0.04255810  0.99991686  0.87421149     0.04600
C921        C  0.04256164  0.54266268  0.87430612     0.04600
C922        C  0.99981326  0.54265708  0.87445157     0.04600
C923        C  0.14045509  0.97831411  0.89651148     0.05500
C924        C  0.17211059  0.99980372  0.87397065    -0.10700
C925        C  0.16177687  0.52136365  0.85151422     0.03000
C926        C  0.11934684  0.52080039  0.85133691    -0.09200
C927        C  0.08754631  0.99990768  0.87412846     0.05500
C928        C  0.09864736  0.97898184  0.89684447    -0.08600
H929        H  0.20470792  0.99977491  0.87391437     0.11100
H930        H  0.11121175  0.53696112  0.83365435     0.08600
H931        H  0.07454244  0.96287957  0.91459491     0.08400
C932        C  0.35925571  0.52127391  0.89721693     0.05500
C933        C  0.40111317  0.52068936  0.89739426    -0.10700
C934        C  0.41205538  0.99989063  0.87457714     0.03000
C935        C  0.38006828  0.97907234  0.85183761    -0.09200
C936        C  0.33759558  0.97840889  0.85216998     0.05500
C937        C  0.32739757  0.99981116  0.87473486    -0.08600
H938        H  0.42538199  0.53677304  0.91509345     0.11100
H939        H  0.38809874  0.96304594  0.83406757     0.08600
H940        H  0.29477646  0.99979216  0.87478889     0.08400
C941        C  0.47818609  0.64053813  0.85221029     0.05500
C942        C  0.49973594  0.67221260  0.87474344    -0.10700
C943        C  0.02134810  0.66189928  0.89717844     0.03000
C944        C  0.02078207  0.61946999  0.89733929    -0.09200
C945        C  0.49981541  0.58764519  0.87455391     0.05500
C946        C  0.47883696  0.59872864  0.85186126    -0.08600
H947        H  0.49970915  0.70480741  0.87481133     0.11100
H948        H  0.03698766  0.61134998  0.91500472     0.08600
H949        H  0.46268079  0.57460672  0.83411388     0.08400
C950        C  0.14030547  0.66203529  0.85172777     0.05500
C951        C  0.09845083  0.61958385  0.85151351    -0.10700
C952        C  0.08755656  0.58765917  0.87425718     0.03000
C953        C  0.11958225  0.59865794  0.89695915    -0.09200
C954        C  0.16203963  0.64049460  0.89666105     0.05500
C955        C  0.17219274  0.67227414  0.87417321    -0.08600
H956        H  0.07415782  0.61152266  0.83383754     0.11100
H957        H  0.11159252  0.57445554  0.91467155     0.08600
H958        H  0.20481432  0.70488737  0.87414366     0.08400
C959        C  0.02112533  0.85935056  0.85143768     0.05500
C960        C  0.49973128  0.82752619  0.87393220    -0.10700
C961        C  0.47839740  0.83775420  0.89652365     0.03000
C962        C  0.47906256  0.88022191  0.89687156    -0.09200
C963        C  0.49980154  0.91217225  0.87412117     0.05500
C964        C  0.02053536  0.90120346  0.85127708    -0.08600
H965        H  0.49970825  0.79490673  0.87386604     0.11100
H966        H  0.46308764  0.88827341  0.91466214     0.08600
H967        H  0.03656244  0.92544672  0.83357026     0.08400
C968        C  0.35906148  0.83782787  0.85193963     0.05500
C969        C  0.32743151  0.82751311  0.87451248    -0.10700
C970        C  0.33782449  0.85924687  0.89704081     0.03000
C971        C  0.38028822  0.90109047  0.89725220    -0.09200
C972        C  0.41204834  0.91215979  0.87442521     0.05500
C973        C  0.40088306  0.88030274  0.85164078    -0.08600
H974        H  0.29482295  0.79489255  0.87454408     0.11100
H975        H  0.38847724  0.92525493  0.91498904     0.08600
H976        H  0.42496195  0.88842542  0.83386767     0.08400
C977        C  0.15673444  0.72367073  0.81064581    -0.10900
C978        C  0.15012648  0.69561662  0.82923826    -0.12500
C979        C  0.04472252  0.84952599  0.82887835    -0.10900
C980        C  0.06617494  0.84300634  0.81028156    -0.12500
C981        C  0.27604302  0.93349886  0.81098637    -0.10900
C982        C  0.30398843  0.95484428  0.82965457    -0.12500
C983        C  0.43313585  0.65717149  0.81110512    -0.10900
C984        C  0.45451019  0.65053194  0.82974076    -0.12500
C985        C  0.22329310  0.56655386  0.81042003    -0.10900
C986        C  0.19527140  0.54506954  0.82899855    -0.12500
C987        C  0.34257642  0.77639422  0.81076375    -0.10900
C988        C  0.34908177  0.80430549  0.82940886    -0.12500
C989        C  0.04774332  0.85233288  0.66841597    -0.10900
C990        C  0.07037900  0.84803209  0.68722777    -0.12500
C991        C  0.35232169  0.80516305  0.66893013    -0.10900
C992        C  0.34802088  0.77818238  0.68770516    -0.12500
C993        C  0.45338066  0.64879301  0.66927749    -0.10900
C994        C  0.43069724  0.65302634  0.68804410    -0.12500
C995        C  0.14882166  0.69607810  0.66873848    -0.10900
C996        C  0.15300609  0.72291731  0.68755240    -0.12500
C997        C  0.19596143  0.54775539  0.66851592    -0.10900
C998        C  0.22284212  0.57037058  0.68734859    -0.12500
C999        C  0.27811093  0.93066325  0.68789398    -0.10900
C1000       C  0.30505832  0.95336535  0.66913140    -0.12500
C1001       C  0.34295453  0.56641551  0.93833054    -0.10900
C1002       C  0.34946045  0.54493161  0.91974899    -0.12500
C1003       C  0.34770455  0.57053642  0.56137806    -0.10900
C1004       C  0.35200131  0.54791287  0.58019795    -0.12500
C1005       C  0.22372152  0.65701825  0.93774256    -0.10900
C1006       C  0.19568799  0.65040534  0.91912801    -0.12500
C1007       C  0.43350981  0.77625052  0.93770635    -0.10900
C1008       C  0.45486828  0.80417228  0.91904205    -0.12500
C1009       C  0.19563816  0.64897070  0.57962334    -0.10900
C1010       C  0.22250686  0.65317296  0.56082776    -0.12500
C1011       C  0.43034841  0.77835158  0.56076777    -0.10900
C1012       C  0.45303233  0.80533807  0.57952888    -0.12500
C1013       C  0.06653992  0.72346229  0.93827316    -0.10900
C1014       C  0.04507894  0.69540981  0.91969420    -0.12500
C1015       C  0.04740405  0.69619097  0.58018887    -0.10900
C1016       C  0.07002475  0.72304174  0.56135737    -0.12500
C1017       C  0.15709322  0.93332412  0.93765575    -0.10900
C1018       C  0.15046064  0.95467908  0.91900424    -0.12500
C1019       C  0.27643992  0.84284680  0.93822657    -0.10900
C1020       C  0.30436884  0.84934817  0.91959823    -0.12500
C1021       C  0.14844436  0.95349731  0.57949807    -0.10900
C1022       C  0.15265976  0.93079293  0.56073747    -0.12500
C1023       C  0.30470570  0.85245287  0.58010313    -0.10900
C1024       C  0.27775646  0.84816682  0.56130445    -0.12500
O1025       O  0.63754299  0.25956828  0.03393219    -0.79400
C1026       C  0.66132267  0.40602543  0.46018372     0.99900
O1027       O  0.62601365  0.38005993  0.47509182    -0.68600
O1028       O  0.59157547  0.29128425  0.46511565    -0.72200
Al1029     Al  0.61019070  0.32764249  0.99932712     1.49000
C1030       C  0.59400046  0.25524061  0.46063685     0.95200
O1031       O  0.70880763  0.30035163  0.46531057    -0.78400
O1032       O  0.74103299  0.37885086  0.03370451    -0.71900
Al1033     Al  0.67270907  0.28300393  0.49962303     1.90100
O1034       O  0.75411670  0.37418100  0.47539719    -0.71000
O1035       O  0.69220480  0.41904656  0.02328869    -0.70900
O1036       O  0.69977905  0.40848665  0.46487057    -0.76500
O1037       O  0.62178359  0.36307050  0.03350535    -0.74700
O1038       O  0.66675499  0.33360351  0.99936113    -1.10800
O1039       O  0.58151054  0.27392176  0.02363741    -0.70000
C1040       C  0.59776405  0.25378054  0.03869527     1.00700
C1041       C  0.74483919  0.33876883  0.46062572     0.97100
Al1042     Al  0.71737038  0.39017046  0.99930763     1.55600
O1043       O  0.62009752  0.24609326  0.47559551    -0.74700
C1044       C  0.65574660  0.40290017  0.03823181     1.01200
C1045       C  0.74685921  0.34492029  0.03865602     0.96100
O1046       O  0.72661767  0.30835714  0.02379384    -0.80000
O1047       O  0.87850993  0.13794619  0.03380369    -0.79400
C1048       C  0.75536638  0.16133062  0.46021230     0.99900
O1049       O  0.74609230  0.12609305  0.47520283    -0.68600
O1050       O  0.80035088  0.09159192  0.46521097    -0.72200
Al1051     Al  0.78283144  0.11039552  0.99941480     1.49000
C1052       C  0.83878739  0.09397560  0.46066304     0.95200
O1053       O  0.90851818  0.20876918  0.46496225    -0.78400
O1054       O  0.86273504  0.24141019  0.03338117    -0.71900
Al1055     Al  0.89001451  0.17290191  0.49939379     1.90100
O1056       O  0.88011333  0.25415870  0.47502077    -0.71000
O1057       O  0.77362051  0.19253798  0.02322656    -0.70900
O1058       O  0.79140049  0.19980170  0.46476689    -0.76500
O1059       O  0.75920358  0.12217019  0.03360700    -0.74700
O1060       O  0.83345390  0.16694988  0.49924737    -1.10800
O1061       O  0.80803421  0.08186120  0.02374428    -0.70000
C1062       C  0.84454287  0.09818712  0.03869764     1.00700
C1063       C  0.90611997  0.24477593  0.46021070     0.97100
Al1064     Al  0.82752267  0.21756380  0.99909958     1.55600
O1065       O  0.87413489  0.12013787  0.47551474    -0.74700
C1066       C  0.75337609  0.15615621  0.03827384     1.01200
C1067       C  0.90254780  0.24730453  0.03823584     0.96100
O1068       O  0.91876911  0.22697878  0.02338897    -0.80000
C1069       C  0.50037087  0.45805483  0.12422445     0.04600
C1070       C  0.95776932  0.45805072  0.12438923     0.04600
C1071       C  0.95777204  0.00065135  0.12449818     0.04600
C1072       C  0.50038156  0.04326066  0.12447451     0.04600
C1073       C  0.54299312  0.04326726  0.12430722     0.04600
C1074       C  0.54298496  0.00066111  0.12418967     0.04600
C1075       C  0.86065269  0.02295287  0.10242489     0.05500
C1076       C  0.90220943  0.02199257  0.10203845    -0.10700
C1077       C  0.91296031  0.00065055  0.12457387     0.03000
C1078       C  0.88105203  0.47930468  0.14716274    -0.09200
C1079       C  0.83853758  0.47836648  0.14688301     0.05500
C1080       C  0.82847447  0.00066669  0.12468048    -0.08600
H1081       H  0.92655341  0.03843032  0.08443561     0.11100
H1082       H  0.88909047  0.46284023  0.16471711     0.08600
H1083       H  0.79587150  0.00066672  0.12471765     0.08400
C1084       C  0.63996360  0.47845397  0.10176196     0.05500
C1085       C  0.67229628  0.00066171  0.12398790    -0.10700
C1086       C  0.66237650  0.02286224  0.14626909     0.03000
C1087       C  0.61986023  0.02190326  0.14665813    -0.09200
C1088       C  0.58780136  0.00066489  0.12410103     0.05500
C1089       C  0.59839510  0.47941062  0.10148536    -0.08600
H1090       H  0.70489539  0.00065388  0.12395025     0.11100
H1091       H  0.61192985  0.03826717  0.16428213     0.08600
H1092       H  0.57391681  0.46302037  0.08391576     0.08400
C1093       C  0.66219858  0.14039093  0.10191412     0.05500
C1094       C  0.61967424  0.09881206  0.10162587    -0.10700
C1095       C  0.58782083  0.08808715  0.12426129     0.03000
C1096       C  0.59863668  0.12003291  0.14685473    -0.09200
C1097       C  0.64018312  0.16257393  0.14647761     0.05500
C1098       C  0.67231177  0.17261921  0.12417355    -0.08600
H1099       H  0.61158739  0.07442571  0.08402619     0.11100
H1100       H  0.57433309  0.11200653  0.16449174     0.08600
H1101       H  0.70490870  0.20523558  0.12414120     0.08400
C1102       C  0.97827230  0.14027790  0.14698474     0.05500
C1103       C  0.97920032  0.09869588  0.14723010    -0.10700
C1104       C  0.50037800  0.08807110  0.12458189     0.03000
C1105       C  0.52154891  0.12010185  0.10201842    -0.09200
C1106       C  0.52254210  0.16262870  0.10243694     0.05500
C1107       C  0.50043082  0.17258734  0.12475391    -0.08600
H1108       H  0.96285370  0.07423525  0.16480288     0.11100
H1109       H  0.53784947  0.11214663  0.08436865     0.08600
H1110       H  0.50045202  0.20519769  0.12481446     0.08400
C1111       C  0.86082006  0.33871565  0.14670168     0.05500
C1112       C  0.90240812  0.38122693  0.14699180    -0.10700
C1113       C  0.91295767  0.41323585  0.12443878     0.03000
C1114       C  0.88084929  0.40258472  0.10192780    -0.09200
C1115       C  0.83832670  0.36102344  0.10230515     0.05500
C1116       C  0.82843976  0.32874936  0.12452504    -0.08600
H1117       H  0.92692266  0.38919310  0.16452982     0.11100
H1118       H  0.88874721  0.42700912  0.08435229     0.08600
H1119       H  0.79582412  0.29614810  0.12455581     0.08400
C1120       C  0.52273923  0.36097089  0.14621409     0.05500
C1121       C  0.50041654  0.32878935  0.12395595    -0.10700
C1122       C  0.97804724  0.33882635  0.10178310     0.03000
C1123       C  0.97895334  0.38132336  0.10153610    -0.09200
C1124       C  0.50035934  0.41324408  0.12412549     0.05500
C1125       C  0.52176241  0.40251178  0.14663215    -0.08600
H1126       H  0.50044066  0.29620035  0.12389480     0.11100
H1127       H  0.96243518  0.38934549  0.08400441     0.08600
H1128       H  0.53824062  0.42686337  0.16423762     0.08400
O1129       O  0.75939451  0.13783101  0.21484582    -0.79400
C1130       C  0.90583883  0.16144109  0.28859176     0.99900
O1131       O  0.87989582  0.12617349  0.27363341    -0.68600
O1132       O  0.79111471  0.09168346  0.28358062    -0.72200
Al1133     Al  0.82748230  0.11040285  0.24938785     1.49000
C1134       C  0.75505382  0.09406979  0.28807623     0.95200
O1135       O  0.80012237  0.20884932  0.28358349    -0.78400
O1136       O  0.87867318  0.24133363  0.21521117    -0.71900
Al1137     Al  0.78280500  0.17288251  0.24920997     1.90100
O1138       O  0.87395388  0.25422533  0.27354075    -0.71000
O1139       O  0.91889724  0.19249369  0.22553337    -0.70900
O1140       O  0.90828572  0.19989741  0.28396507    -0.76500
O1141       O  0.86293392  0.12210056  0.21522103    -0.74700
O1142       O  0.83342182  0.16695101  0.24944248    -1.10800
O1143       O  0.77376319  0.08178533  0.22504789    -0.70000
C1144       C  0.75360793  0.09806740  0.21002669     1.00700
C1145       C  0.83852964  0.24487480  0.28831514     0.97100
Al1146     Al  0.88998323  0.21757426  0.24956360     1.55600
O1147       O  0.74588477  0.12018452  0.27315734    -0.74700
C1148       C  0.90277319  0.15607256  0.21054430     1.01200
C1149       C  0.84474779  0.24718899  0.21029175     0.96100
O1150       O  0.80816845  0.22688378  0.22512822    -0.80000
O1151       O  0.69955910  0.29143278  0.28372061    -0.79400
C1152       C  0.59800695  0.34482585  0.20990750     0.99900
O1153       O  0.58165972  0.30828744  0.22481481    -0.68600
O1154       O  0.62195861  0.25948269  0.21486179    -0.72200
Al1155     Al  0.61016959  0.28301337  0.24909638     1.49000
C1156       C  0.65596206  0.25369376  0.21016263     0.95200
O1157       O  0.74122289  0.36300894  0.21521992    -0.78400
O1158       O  0.70855677  0.40858956  0.28371854    -0.71900
Al1159     Al  0.71735002  0.32768462  0.24944868     1.90100
O1160       O  0.72678585  0.41900625  0.22530437    -0.71000
O1161       O  0.61991899  0.37425141  0.27313113    -0.70900
O1162       O  0.63776380  0.37877786  0.21484700    -0.76500
O1163       O  0.59134682  0.30044602  0.28333437    -0.74700
O1164       O  0.66673620  0.33362437  0.24932896    -1.10800
O1165       O  0.62583869  0.24619456  0.27324354    -0.70000
C1166       C  0.66107351  0.25539568  0.28822895     1.00700
C1167       C  0.74710380  0.40282304  0.21041796     0.97100
Al1168     Al  0.67269862  0.39018557  0.24926763     1.55600
O1169       O  0.69233896  0.27388579  0.22523114    -0.74700
C1170       C  0.59373729  0.33887316  0.28793633     1.01200
C1171       C  0.74455646  0.40616207  0.28845869     0.96100
O1172       O  0.75393101  0.38018275  0.27361155    -0.80000
C1173       C  0.95705773  0.99990553  0.37448234     0.04600
C1174       C  0.95705295  0.45715947  0.37437897     0.04600
C1175       C  0.99980476  0.45716562  0.37423067     0.04600
C1176       C  0.54255797  0.49991661  0.37421142     0.04600
C1177       C  0.54256141  0.04266237  0.37430606     0.04600
C1178       C  0.49981304  0.04265689  0.37445170     0.04600
C1179       C  0.64045515  0.47831405  0.39651129     0.05500
C1180       C  0.67211052  0.49980371  0.37397055    -0.10700
C1181       C  0.66177689  0.02136370  0.35151415     0.03000
C1182       C  0.61934681  0.02080024  0.35133698    -0.09200
C1183       C  0.58754630  0.49990758  0.37412826     0.05500
C1184       C  0.59864704  0.47898156  0.39684455    -0.08600
H1185       H  0.70470825  0.49977491  0.37391420     0.11100
H1186       H  0.61121153  0.03696120  0.33365402     0.08600
H1187       H  0.57454291  0.46287981  0.41459423     0.08400
C1188       C  0.85925587  0.02127385  0.39721724     0.05500
C1189       C  0.90111274  0.02068899  0.39739406    -0.10700
C1190       C  0.91205549  0.49989058  0.37457724     0.03000
C1191       C  0.88006825  0.47907252  0.35183780    -0.09200
C1192       C  0.83759565  0.47840883  0.35217008     0.05500
C1193       C  0.82739750  0.49981103  0.37473500    -0.08600
H1194       H  0.92538335  0.03677382  0.41509446     0.11100
H1195       H  0.88809897  0.46304568  0.33406732     0.08600
H1196       H  0.79477666  0.49979197  0.37478907     0.08400
C1197       C  0.97818616  0.14053828  0.35221050     0.05500
C1198       C  0.99973572  0.17221247  0.37474362    -0.10700
C1199       C  0.52134828  0.16189927  0.39717867     0.03000
C1200       C  0.52078203  0.11947006  0.39733921    -0.09200
C1201       C  0.99981560  0.08764532  0.37455412     0.05500
C1202       C  0.97883661  0.09872800  0.35186088    -0.08600
H1203       H  0.99970922  0.20480744  0.37481156     0.11100
H1204       H  0.53698821  0.11134990  0.41500535     0.08600
H1205       H  0.96268185  0.07460818  0.33411511     0.08400
C1206       C  0.64030490  0.16203464  0.35172761     0.05500
C1207       C  0.59845086  0.11958359  0.35151371    -0.10700
C1208       C  0.58755613  0.08765860  0.37425708     0.03000
C1209       C  0.61958211  0.09865775  0.39695891    -0.09200
C1210       C  0.66203913  0.14049395  0.39666097     0.05500
C1211       C  0.67219307  0.17227440  0.37417312    -0.08600
H1212       H  0.57415652  0.11152167  0.33383691     0.11100
H1213       H  0.61159184  0.07445452  0.41467192     0.08600
H1214       H  0.70481243  0.20488529  0.37414352     0.08400
C1215       C  0.52112534  0.35935033  0.35143755     0.05500
C1216       C  0.99973104  0.32752633  0.37393206    -0.10700
C1217       C  0.97839740  0.33775392  0.39652345     0.03000
C1218       C  0.97906234  0.38022185  0.39687170    -0.09200
C1219       C  0.99980152  0.41217204  0.37412093     0.05500
C1220       C  0.52053509  0.40120293  0.35127722    -0.08600
H1221       H  0.99970820  0.29490557  0.37386585     0.11100
H1222       H  0.96308816  0.38827299  0.41466149     0.08600
H1223       H  0.53656294  0.42544710  0.33356962     0.08400
C1224       C  0.85906110  0.33782754  0.35193971     0.05500
C1225       C  0.82743190  0.32751362  0.37451253    -0.10700
C1226       C  0.83782405  0.35924658  0.39704088     0.03000
C1227       C  0.88028782  0.40109007  0.39725204    -0.09200
C1228       C  0.91204809  0.41215953  0.37442533     0.05500
C1229       C  0.90088290  0.38030246  0.35164095    -0.08600
H1230       H  0.79482106  0.29489079  0.37454422     0.11100
H1231       H  0.88847694  0.42525511  0.41498947     0.08600
H1232       H  0.92496178  0.38842529  0.33386769     0.08400
C1233       C  0.65673431  0.22367051  0.31064575    -0.10900
C1234       C  0.65012611  0.19561620  0.32923814    -0.12500
C1235       C  0.54472245  0.34952575  0.32887831    -0.10900
C1236       C  0.56617498  0.34300625  0.31028152    -0.12500
C1237       C  0.77604299  0.43349882  0.31098648    -0.10900
C1238       C  0.80398841  0.45484427  0.32965469    -0.12500
C1239       C  0.93313586  0.15717141  0.31110518    -0.10900
C1240       C  0.95451018  0.15053198  0.32974085    -0.12500
C1241       C  0.72329307  0.06655391  0.31042000    -0.10900
C1242       C  0.69527139  0.04506954  0.32899852    -0.12500
C1243       C  0.84257635  0.27639410  0.31076376    -0.10900
C1244       C  0.84908160  0.30430529  0.32940892    -0.12500
C1245       C  0.54774352  0.35233310  0.16841597    -0.10900
C1246       C  0.57037922  0.34803234  0.18722777    -0.12500
C1247       C  0.85232182  0.30516325  0.16893022    -0.10900
C1248       C  0.84802112  0.27818261  0.18770524    -0.12500
C1249       C  0.95338077  0.14879321  0.16927756    -0.10900
C1250       C  0.93069731  0.15302642  0.18804419    -0.12500
C1251       C  0.64882165  0.19607813  0.16873850    -0.10900
C1252       C  0.65300613  0.22291741  0.18755238    -0.12500
C1253       C  0.69596140  0.04775541  0.16851592    -0.10900
C1254       C  0.72284219  0.07037055  0.18734856    -0.12500
C1255       C  0.77811089  0.43066323  0.18789408    -0.10900
C1256       C  0.80505845  0.45336529  0.16913158    -0.12500
C1257       C  0.84295450  0.06641548  0.43833068    -0.10900
C1258       C  0.84946054  0.04493159  0.41974917    -0.12500
C1259       C  0.84770470  0.07053648  0.06137814    -0.10900
C1260       C  0.85200138  0.04791297  0.08019810    -0.12500
C1261       C  0.72372141  0.15701817  0.43774245    -0.10900
C1262       C  0.69568775  0.15040506  0.41912792    -0.12500
C1263       C  0.93350986  0.27625054  0.43770638    -0.10900
C1264       C  0.95486821  0.30417214  0.41904196    -0.12500
C1265       C  0.69563833  0.14897084  0.07962343    -0.10900
C1266       C  0.72250700  0.15317311  0.06082783    -0.12500
C1267       C  0.93034853  0.27835166  0.06076777    -0.10900
C1268       C  0.95303234  0.30533825  0.07952887    -0.12500
C1269       C  0.56653993  0.22346223  0.43827329    -0.10900
C1270       C  0.54507893  0.19540968  0.41969439    -0.12500
C1271       C  0.54740415  0.19619105  0.08018891    -0.10900
C1272       C  0.57002484  0.22304171  0.06135734    -0.12500
C1273       C  0.65709298  0.43332390  0.43765568    -0.10900
C1274       C  0.65046058  0.45467897  0.41900415    -0.12500
C1275       C  0.77643976  0.34284662  0.43822671    -0.10900
C1276       C  0.80436861  0.34934802  0.41959831    -0.12500
C1277       C  0.64844445  0.45349741  0.07949801    -0.10900
C1278       C  0.65265989  0.43079305  0.06073741    -0.12500
C1279       C  0.80470579  0.35245294  0.08010311    -0.10900
C1280       C  0.77775664  0.34816693  0.06130439    -0.12500
O1281       O  0.63754280  0.25956824  0.53393227    -0.79400
C1282       C  0.66132276  0.40602547  0.96018370     0.99900
O1283       O  0.62601375  0.38005999  0.97509184    -0.68600
O1284       O  0.59157557  0.29128435  0.96511562    -0.72200
Al1285     Al  0.61019059  0.32764243  0.49932712     1.49000
C1286       C  0.59400056  0.25524071  0.96063676     0.95200
O1287       O  0.70880778  0.30035174  0.96531047    -0.78400
O1288       O  0.74103274  0.37885076  0.53370459    -0.71900
Al1289     Al  0.67270922  0.28300402  0.99962294     1.90100
O1290       O  0.75411684  0.37418112  0.97539704    -0.71000
O1291       O  0.69220460  0.41904649  0.52328874    -0.70900
O1292       O  0.69977916  0.40848677  0.96487054    -0.76500
O1293       O  0.62178344  0.36307043  0.53350540    -0.74700
O1294       O  0.66675484  0.33360344  0.49936117    -1.10800
O1295       O  0.58151039  0.27392169  0.52363740    -0.70000
C1296       C  0.59776385  0.25378045  0.53869528     1.00700
C1297       C  0.74483937  0.33876894  0.96062561     0.97100
Al1298     Al  0.71737019  0.39017036  0.49930769     1.55600
O1299       O  0.62009768  0.24609339  0.97559539    -0.74700
C1300       C  0.65574642  0.40290010  0.53823187     1.01200
C1301       C  0.74685893  0.34492017  0.53865614     0.96100
O1302       O  0.72661750  0.30835706  0.52379393    -0.80000
O1303       O  0.87850963  0.13794612  0.53380373    -0.79400
C1304       C  0.75536655  0.16133072  0.96021232     0.99900
O1305       O  0.74609240  0.12609315  0.97520287    -0.68600
O1306       O  0.80035095  0.09159191  0.96521096    -0.72200
Al1307     Al  0.78283132  0.11039547  0.49941477     1.49000
C1308       C  0.83878744  0.09397556  0.96066301     0.95200
O1309       O  0.90851816  0.20876917  0.96496210    -0.78400
O1310       O  0.86273486  0.24141020  0.53338115    -0.71900
Al1311     Al  0.89001465  0.17290199  0.99939369     1.90100
O1312       O  0.88011345  0.25415875  0.97502077    -0.71000
O1313       O  0.77362031  0.19253785  0.52322654    -0.70900
O1314       O  0.79140062  0.19980183  0.96476695    -0.76500
O1315       O  0.75920333  0.12217005  0.53360694    -0.74700
O1316       O  0.83345400  0.16694994  0.99924734    -1.10800
O1317       O  0.80803401  0.08186109  0.52374418    -0.70000
C1318       C  0.84454260  0.09818703  0.53869761     1.00700
C1319       C  0.90612011  0.24477602  0.96021069     0.97100
Al1320     Al  0.82752253  0.21756370  0.49909957     1.55600
O1321       O  0.87413501  0.12013795  0.97551463    -0.74700
C1322       C  0.75337587  0.15615607  0.53827381     1.01200
C1323       C  0.90254759  0.24730449  0.53823588     0.96100
O1324       O  0.91876889  0.22697867  0.52338908    -0.80000
C1325       C  0.50037069  0.45805482  0.62422450     0.04600
C1326       C  0.95776927  0.45805070  0.62438922     0.04600
C1327       C  0.95777190  0.00065123  0.62449803     0.04600
C1328       C  0.50038146  0.04326054  0.62447446     0.04600
C1329       C  0.54299300  0.04326708  0.62430729     0.04600
C1330       C  0.54298478  0.00066093  0.62418977     0.04600
C1331       C  0.86065248  0.02295288  0.60242475     0.05500
C1332       C  0.90220895  0.02199226  0.60203857    -0.10700
C1333       C  0.91296017  0.00065054  0.62457364     0.03000
C1334       C  0.88105203  0.47930444  0.64716277    -0.09200
C1335       C  0.83853751  0.47836648  0.64688282     0.05500
C1336       C  0.82847485  0.00066659  0.62468037    -0.08600
H1337       H  0.92655403  0.03843099  0.58443495     0.11100
H1338       H  0.88909030  0.46284075  0.66471649     0.08600
H1339       H  0.79587005  0.00066678  0.62471753     0.08400
C1340       C  0.63996326  0.47845397  0.60176205     0.05500
C1341       C  0.67229607  0.00066172  0.62398782    -0.10700
C1342       C  0.66237632  0.02286213  0.64626905     0.03000
C1343       C  0.61986014  0.02190306  0.64665805    -0.09200
C1344       C  0.58780103  0.00066459  0.62410106     0.05500
C1345       C  0.59839471  0.47941048  0.60148533    -0.08600
H1346       H  0.70489534  0.00065377  0.62395013     0.11100
H1347       H  0.61192946  0.03826700  0.66428239     0.08600
H1348       H  0.57391680  0.46302053  0.58391620     0.08400
C1349       C  0.66219835  0.14039076  0.60191414     0.05500
C1350       C  0.61967407  0.09881180  0.60162587    -0.10700
C1351       C  0.58782072  0.08808696  0.62426138     0.03000
C1352       C  0.59863650  0.12003274  0.64685483    -0.09200
C1353       C  0.64018289  0.16257382  0.64647761     0.05500
C1354       C  0.67231163  0.17261939  0.62417345    -0.08600
H1355       H  0.61158734  0.07442559  0.58402642     0.11100
H1356       H  0.57433308  0.11200642  0.66449173     0.08600
H1357       H  0.70490814  0.20523508  0.62414118     0.08400
C1358       C  0.97827222  0.14027790  0.64698459     0.05500
C1359       C  0.97919990  0.09869544  0.64723019    -0.10700
C1360       C  0.50037801  0.08807108  0.62458173     0.03000
C1361       C  0.52154887  0.12010181  0.60201841    -0.09200
C1362       C  0.52254212  0.16262868  0.60243686     0.05500
C1363       C  0.50043079  0.17258729  0.62475388    -0.08600
H1364       H  0.96285414  0.07423597  0.66480234     0.11100
H1365       H  0.53784972  0.11214669  0.58436845     0.08600
H1366       H  0.50045191  0.20519767  0.62481432     0.08400
C1367       C  0.86082022  0.33871567  0.64670166     0.05500
C1368       C  0.90240784  0.38122673  0.64699153    -0.10700
C1369       C  0.91295771  0.41323589  0.62443877     0.03000
C1370       C  0.88084912  0.40258442  0.60192793    -0.09200
C1371       C  0.83832673  0.36102353  0.60230518     0.05500
C1372       C  0.82843964  0.32874926  0.62452507    -0.08600
H1373       H  0.92692341  0.38919329  0.66453029     0.11100
H1374       H  0.88874716  0.42700960  0.58435193     0.08600
H1375       H  0.79582452  0.29614841  0.62455583     0.08400
C1376       C  0.52273893  0.36097088  0.64621406     0.05500
C1377       C  0.50041619  0.32878864  0.62395597    -0.10700
C1378       C  0.97804720  0.33882628  0.60178308     0.03000
C1379       C  0.97895324  0.38132335  0.60153605    -0.09200
C1380       C  0.50035917  0.41324410  0.62412548     0.05500
C1381       C  0.52176243  0.40251201  0.64663239    -0.08600
H1382       H  0.50044034  0.29620163  0.62389472     0.11100
H1383       H  0.96243526  0.38934532  0.58400459     0.08600
H1384       H  0.53824007  0.42686273  0.66423720     0.08400
O1385       O  0.75939437  0.13783093  0.71484587    -0.79400
C1386       C  0.90583878  0.16144106  0.78859167     0.99900
O1387       O  0.87989574  0.12617343  0.77363335    -0.68600
O1388       O  0.79111468  0.09168341  0.78358057    -0.72200
Al1389     Al  0.82748224  0.11040279  0.74938782     1.49000
C1390       C  0.75505387  0.09406986  0.78807629     0.95200
O1391       O  0.80012240  0.20884931  0.78358345    -0.78400
O1392       O  0.87867310  0.24133350  0.71521113    -0.71900
Al1393     Al  0.78280498  0.17288249  0.74920997     1.90100
O1394       O  0.87395389  0.25422532  0.77354073    -0.71000
O1395       O  0.91889718  0.19249361  0.72553332    -0.70900
O1396       O  0.90828572  0.19989739  0.78396499    -0.76500
O1397       O  0.86293382  0.12210048  0.71522103    -0.74700
O1398       O  0.83342179  0.16695095  0.74944248    -1.10800
O1399       O  0.77376315  0.08178530  0.72504787    -0.70000
C1400       C  0.75360783  0.09806734  0.71002670     1.00700
C1401       C  0.83852968  0.24487479  0.78831512     0.97100
Al1402     Al  0.88998321  0.21757421  0.74956357     1.55600
O1403       O  0.74588479  0.12018458  0.77315740    -0.74700
C1404       C  0.90277311  0.15607246  0.71054426     1.01200
C1405       C  0.84474771  0.24718886  0.71029169     0.96100
O1406       O  0.80816842  0.22688374  0.72512820    -0.80000
O1407       O  0.69955916  0.29143290  0.78372059    -0.79400
C1408       C  0.59800681  0.34482574  0.70990749     0.99900
O1409       O  0.58165965  0.30828738  0.72481485    -0.68600
O1410       O  0.62195855  0.25948263  0.71486184    -0.72200
Al1411     Al  0.61016956  0.28301336  0.74909643     1.49000
C1412       C  0.65596198  0.25369369  0.71016266     0.95200
O1413       O  0.74122289  0.36300889  0.71521992    -0.78400
O1414       O  0.70855682  0.40858964  0.78371847    -0.71900
Al1415     Al  0.71734996  0.32768461  0.74944866     1.90100
O1416       O  0.72678581  0.41900619  0.72530429    -0.71000
O1417       O  0.61991898  0.37425145  0.77313109    -0.70900
O1418       O  0.63776373  0.37877775  0.71484694    -0.76500
O1419       O  0.59134684  0.30044609  0.78333444    -0.74700
O1420       O  0.66673615  0.33362436  0.74932898    -1.10800
O1421       O  0.62583876  0.24619467  0.77324359    -0.70000
C1422       C  0.66107362  0.25539581  0.78822896     1.00700
C1423       C  0.74710374  0.40282296  0.71041789     0.97100
Al1424     Al  0.67269861  0.39018557  0.74926758     1.55600
O1425       O  0.69233889  0.27388573  0.72523116    -0.74700
C1426       C  0.59373734  0.33887325  0.78793636     1.01200
C1427       C  0.74455649  0.40616211  0.78845861     0.96100
O1428       O  0.75393102  0.38018276  0.77361149    -0.80000
C1429       C  0.95705780  0.99990565  0.87448227     0.04600
C1430       C  0.95705307  0.45715967  0.87437883     0.04600
C1431       C  0.99980494  0.45716588  0.87423079     0.04600
C1432       C  0.54255807  0.49991676  0.87421146     0.04600
C1433       C  0.54256159  0.04266260  0.87430609     0.04600
C1434       C  0.49981316  0.04265701  0.87445160     0.04600
C1435       C  0.64045520  0.47831414  0.89651141     0.05500
C1436       C  0.67211057  0.49980372  0.87397063    -0.10700
C1437       C  0.66177692  0.02136368  0.85151425     0.03000
C1438       C  0.61934681  0.02080035  0.85133692    -0.09200
C1439       C  0.58754638  0.49990766  0.87412839     0.05500
C1440       C  0.59864714  0.47898166  0.89684459    -0.08600
H1441       H  0.70470829  0.49977492  0.87391433     0.11100
H1442       H  0.61121180  0.03696113  0.83365439     0.08600
H1443       H  0.57454294  0.46287988  0.91459448     0.08400
C1444       C  0.85925582  0.02127398  0.89721701     0.05500
C1445       C  0.90111304  0.02068925  0.89739414    -0.10700
C1446       C  0.91205548  0.49989063  0.87457704     0.03000
C1447       C  0.88006823  0.47907246  0.85183773    -0.09200
C1448       C  0.83759565  0.47840881  0.85216991     0.05500
C1449       C  0.82739752  0.49981108  0.87473484    -0.08600
H1450       H  0.92538249  0.03677328  0.91509380     0.11100
H1451       H  0.88809895  0.46304562  0.83406712     0.08600
H1452       H  0.79477669  0.49979203  0.87478884     0.08400
C1453       C  0.97818602  0.14053825  0.85221023     0.05500
C1454       C  0.99973577  0.17221232  0.87474344    -0.10700
C1455       C  0.52134819  0.16189924  0.89717850     0.03000
C1456       C  0.52078199  0.11947005  0.89733915    -0.09200
C1457       C  0.99981542  0.08764530  0.87455383     0.05500
C1458       C  0.97883699  0.09872866  0.85186118    -0.08600
H1459       H  0.99970909  0.20480812  0.87481124     0.11100
H1460       H  0.53698795  0.11134971  0.91500515     0.08600
H1461       H  0.96268079  0.07460686  0.83411393     0.08400
C1462       C  0.64030522  0.16203507  0.85172767     0.05500
C1463       C  0.59845097  0.11958389  0.85151370    -0.10700
C1464       C  0.58755640  0.08765900  0.87425708     0.03000
C1465       C  0.61958224  0.09865785  0.89695907    -0.09200
C1466       C  0.66203945  0.14049441  0.89666098     0.05500
C1467       C  0.67219289  0.17227435  0.87417318    -0.08600
H1468       H  0.57415701  0.11152220  0.83383700     0.11100
H1469       H  0.61159231  0.07445536  0.91467156     0.08600
H1470       H  0.70481353  0.20488651  0.87414352     0.08400
C1471       C  0.52112537  0.35935045  0.85143771     0.05500
C1472       C  0.99973110  0.32752592  0.87393216    -0.10700
C1473       C  0.97839735  0.33775427  0.89652363     0.03000
C1474       C  0.97906256  0.38022199  0.89687163    -0.09200
C1475       C  0.99980155  0.41217231  0.87412116     0.05500
C1476       C  0.52053529  0.40120337  0.85127705    -0.08600
H1477       H  0.99970816  0.29490726  0.87386604     0.11100
H1478       H  0.96308774  0.38827344  0.91466201     0.08600
H1479       H  0.53656243  0.42544660  0.83357029     0.08400
C1480       C  0.85906144  0.33782781  0.85193953     0.05500
C1481       C  0.82743170  0.32751337  0.87451241    -0.10700
C1482       C  0.83782447  0.35924677  0.89704075     0.03000
C1483       C  0.88028828  0.40109044  0.89725218    -0.09200
C1484       C  0.91204840  0.41215972  0.87442511     0.05500
C1485       C  0.90088286  0.38030257  0.85164093    -0.08600
H1486       H  0.79482240  0.29489192  0.87454404     0.11100
H1487       H  0.88847729  0.42525489  0.91498888     0.08600
H1488       H  0.92496235  0.38842548  0.83386715     0.08400
C1489       C  0.65673445  0.22367070  0.81064578    -0.10900
C1490       C  0.65012636  0.19561648  0.82923821    -0.12500
C1491       C  0.54472256  0.34952598  0.82887837    -0.10900
C1492       C  0.56617496  0.34300639  0.81028152    -0.12500
C1493       C  0.77604296  0.43349883  0.81098639    -0.10900
C1494       C  0.80398843  0.45484423  0.82965456    -0.12500
C1495       C  0.93313574  0.15717141  0.81110508    -0.10900
C1496       C  0.95451008  0.15053191  0.82974071    -0.12500
C1497       C  0.72329307  0.06655388  0.81042004    -0.10900
C1498       C  0.69527142  0.04506955  0.82899859    -0.12500
C1499       C  0.84257644  0.27639419  0.81076371    -0.10900
C1500       C  0.84908180  0.30430546  0.82940883    -0.12500
C1501       C  0.54774332  0.35233305  0.66841598    -0.10900
C1502       C  0.57037897  0.34803212  0.68722773    -0.12500
C1503       C  0.85232180  0.30516310  0.66893012    -0.10900
C1504       C  0.84802106  0.27818245  0.68770515    -0.12500
C1505       C  0.95338068  0.14879305  0.66927749    -0.10900
C1506       C  0.93069722  0.15302632  0.68804411    -0.12500
C1507       C  0.64882140  0.19607801  0.66873852    -0.10900
C1508       C  0.65300600  0.22291734  0.68755240    -0.12500
C1509       C  0.69596128  0.04775532  0.66851589    -0.10900
C1510       C  0.72284207  0.07037048  0.68734854    -0.12500
C1511       C  0.77811089  0.43066321  0.68789399    -0.10900
C1512       C  0.80505836  0.45336524  0.66913145    -0.12500
C1513       C  0.84295448  0.06641555  0.93833054    -0.10900
C1514       C  0.84946055  0.04493174  0.91974900    -0.12500
C1515       C  0.84770444  0.07053639  0.56137809    -0.10900
C1516       C  0.85200113  0.04791280  0.58019801    -0.12500
C1517       C  0.72372152  0.15701832  0.93774252    -0.10900
C1518       C  0.69568795  0.15040533  0.91912795    -0.12500
C1519       C  0.93350982  0.27625052  0.93770634    -0.10900
C1520       C  0.95486821  0.30417234  0.91904206    -0.12500
C1521       C  0.69563802  0.14897069  0.57962337    -0.10900
C1522       C  0.72250675  0.15317296  0.56082780    -0.12500
C1523       C  0.93034831  0.27835160  0.56076781    -0.10900
C1524       C  0.95303219  0.30533815  0.57952891    -0.12500
C1525       C  0.56653996  0.22346228  0.93827318    -0.10900
C1526       C  0.54507894  0.19540979  0.91969423    -0.12500
C1527       C  0.54740403  0.19619093  0.58018887    -0.10900
C1528       C  0.57002474  0.22304169  0.56135737    -0.12500
C1529       C  0.65709309  0.43332406  0.93765575    -0.10900
C1530       C  0.65046060  0.45467905  0.91900422    -0.12500
C1531       C  0.77644002  0.34284684  0.93822659    -0.10900
C1532       C  0.80436887  0.34934818  0.91959820    -0.12500
C1533       C  0.64844414  0.45349735  0.57949804    -0.10900
C1534       C  0.65265967  0.43079299  0.56073748    -0.12500
C1535       C  0.80470571  0.35245297  0.58010319    -0.10900
C1536       C  0.77775645  0.34816682  0.56130449    -0.12500
O1537       O  0.63754298  0.75956832  0.03393220    -0.79400
C1538       C  0.66132269  0.90602535  0.46018368     0.99900
O1539       O  0.62601368  0.88005994  0.47509184    -0.68600
O1540       O  0.59157550  0.79128429  0.46511564    -0.72200
Al1541     Al  0.61019073  0.82764250  0.99932712     1.49000
C1542       C  0.59400048  0.75524063  0.46063683     0.95200
O1543       O  0.70880767  0.80035166  0.46531057    -0.78400
O1544       O  0.74103293  0.87885079  0.03370453    -0.71900
Al1545     Al  0.67270910  0.78300395  0.49962303     1.90100
O1546       O  0.75411675  0.87418103  0.47539720    -0.71000
O1547       O  0.69220479  0.91904655  0.02328874    -0.70900
O1548       O  0.69977909  0.90848666  0.46487056    -0.76500
O1549       O  0.62178355  0.86307052  0.03350536    -0.74700
O1550       O  0.66675502  0.83360353  0.99936113    -1.10800
O1551       O  0.58151051  0.77392174  0.02363740    -0.70000
C1552       C  0.59776400  0.75378048  0.03869522     1.00700
C1553       C  0.74483924  0.83876887  0.46062573     0.97100
Al1554     Al  0.71737038  0.89017045  0.99930764     1.55600
O1555       O  0.62009755  0.74609328  0.47559550    -0.74700
C1556       C  0.65574656  0.90290018  0.03823184     1.01200
C1557       C  0.74685914  0.84492020  0.03865605     0.96100
O1558       O  0.72661768  0.80835709  0.02379384    -0.80000
O1559       O  0.87850993  0.63794615  0.03380369    -0.79400
C1560       C  0.75536637  0.66133064  0.46021230     0.99900
O1561       O  0.74609229  0.62609305  0.47520280    -0.68600
O1562       O  0.80035088  0.59159191  0.46521095    -0.72200
Al1563     Al  0.78283148  0.61039549  0.99941481     1.49000
C1564       C  0.83878738  0.59397556  0.46066303     0.95200
O1565       O  0.90851809  0.70876905  0.46496220    -0.78400
O1566       O  0.86273502  0.74141016  0.03338115    -0.71900
Al1567     Al  0.89001447  0.67290185  0.49939379     1.90100
O1568       O  0.88011334  0.75415866  0.47502074    -0.71000
O1569       O  0.77362049  0.69253789  0.02322655    -0.70900
O1570       O  0.79140047  0.69980172  0.46476691    -0.76500
O1571       O  0.75920355  0.62217011  0.03360699    -0.74700
O1572       O  0.83345385  0.66694985  0.49924737    -1.10800
O1573       O  0.80803424  0.58186112  0.02374426    -0.70000
C1574       C  0.84454286  0.59818709  0.03869766     1.00700
C1575       C  0.90611998  0.74477588  0.46021070     0.97100
Al1576     Al  0.82752265  0.71756374  0.99909957     1.55600
O1577       O  0.87413487  0.62013778  0.47551475    -0.74700
C1578       C  0.75337607  0.65615612  0.03827384     1.01200
C1579       C  0.90254779  0.74730451  0.03823582     0.96100
O1580       O  0.91876910  0.72697873  0.02338897    -0.80000
C1581       C  0.50037091  0.95805484  0.12422442     0.04600
C1582       C  0.95776928  0.95805073  0.12438923     0.04600
C1583       C  0.95777208  0.50065134  0.12449818     0.04600
C1584       C  0.50038160  0.54326070  0.12447453     0.04600
C1585       C  0.54299317  0.54326725  0.12430725     0.04600
C1586       C  0.54298502  0.50066111  0.12418965     0.04600
C1587       C  0.86065284  0.52295292  0.10242488     0.05500
C1588       C  0.90220936  0.52199246  0.10203859    -0.10700
C1589       C  0.91296041  0.50065053  0.12457388     0.03000
C1590       C  0.88105204  0.97930456  0.14716286    -0.09200
C1591       C  0.83853747  0.97836649  0.14688299     0.05500
C1592       C  0.82847468  0.50066671  0.12468048    -0.08600
H1593       H  0.92655402  0.53843058  0.08443535     0.11100
H1594       H  0.88909031  0.96284054  0.16471678     0.08600
H1595       H  0.79587144  0.50066670  0.12471767     0.08400
C1596       C  0.63996353  0.97845405  0.10176205     0.05500
C1597       C  0.67229578  0.50066170  0.12398783    -0.10700
C1598       C  0.66237665  0.52286217  0.14626900     0.03000
C1599       C  0.61986028  0.52190322  0.14665804    -0.09200
C1600       C  0.58780135  0.50066475  0.12410094     0.05500
C1601       C  0.59839478  0.97941048  0.10148513    -0.08600
H1602       H  0.70489672  0.50065383  0.12395009     0.11100
H1603       H  0.61192979  0.53826708  0.16428208     0.08600
H1604       H  0.57391755  0.96302095  0.08391637     0.08400
C1605       C  0.66219859  0.64039093  0.10191414     0.05500
C1606       C  0.61967421  0.59881200  0.10162583    -0.10700
C1607       C  0.58782088  0.58808717  0.12426134     0.03000
C1608       C  0.59863672  0.62003295  0.14685472    -0.09200
C1609       C  0.64018313  0.66257395  0.14647763     0.05500
C1610       C  0.67231166  0.67261913  0.12417353    -0.08600
H1611       H  0.61158744  0.57442577  0.08402636     0.11100
H1612       H  0.57433309  0.61200657  0.16449184     0.08600
H1613       H  0.70490881  0.70523573  0.12414118     0.08400
C1614       C  0.97827234  0.64027794  0.14698476     0.05500
C1615       C  0.97920036  0.59869591  0.14723009    -0.10700
C1616       C  0.50037797  0.58807116  0.12458190     0.03000
C1617       C  0.52154896  0.62010191  0.10201842    -0.09200
C1618       C  0.52254217  0.66262882  0.10243696     0.05500
C1619       C  0.50043083  0.67258713  0.12475389    -0.08600
H1620       H  0.96285380  0.57423522  0.16480295     0.11100
H1621       H  0.53784954  0.61214685  0.08436872     0.08600
H1622       H  0.50045219  0.70519842  0.12481448     0.08400
C1623       C  0.86082023  0.83871577  0.14670169     0.05500
C1624       C  0.90240816  0.88122699  0.14699182    -0.10700
C1625       C  0.91295770  0.91323591  0.12443878     0.03000
C1626       C  0.88084925  0.90258471  0.10192783    -0.09200
C1627       C  0.83832682  0.86102354  0.10230514     0.05500
C1628       C  0.82843964  0.82874907  0.12452502    -0.08600
H1629       H  0.92692283  0.88919327  0.16452983     0.11100
H1630       H  0.88874723  0.92700923  0.08435224     0.08600
H1631       H  0.79582493  0.79614889  0.12455588     0.08400
C1632       C  0.52273913  0.86097075  0.14621399     0.05500
C1633       C  0.50041648  0.82878931  0.12395591    -0.10700
C1634       C  0.97804728  0.83882632  0.10178301     0.03000
C1635       C  0.97895338  0.88132336  0.10153606    -0.09200
C1636       C  0.50035934  0.91324401  0.12412537     0.05500
C1637       C  0.52176254  0.90251198  0.14663233    -0.08600
H1638       H  0.50044050  0.79620022  0.12389474     0.11100
H1639       H  0.96243515  0.88934543  0.08400426     0.08600
H1640       H  0.53824024  0.92686264  0.16423706     0.08400
O1641       O  0.75939449  0.63783100  0.21484583    -0.79400
C1642       C  0.90583877  0.66144109  0.28859176     0.99900
O1643       O  0.87989581  0.62617350  0.27363339    -0.68600
O1644       O  0.79111469  0.59168341  0.28358060    -0.72200
Al1645     Al  0.82748229  0.61040286  0.24938784     1.49000
C1646       C  0.75505384  0.59406980  0.28807623     0.95200
O1647       O  0.80012235  0.70884929  0.28358352    -0.78400
O1648       O  0.87867311  0.74133352  0.21521116    -0.71900
Al1649     Al  0.78280497  0.67288251  0.24920997     1.90100
O1650       O  0.87395383  0.75422531  0.27354074    -0.71000
O1651       O  0.91889724  0.69249366  0.22553339    -0.70900
O1652       O  0.90828569  0.69989741  0.28396505    -0.76500
O1653       O  0.86293391  0.62210055  0.21522104    -0.74700
O1654       O  0.83342179  0.66695101  0.24944248    -1.10800
O1655       O  0.77376320  0.58178531  0.22504787    -0.70000
C1656       C  0.75360793  0.59806740  0.21002668     1.00700
C1657       C  0.83852960  0.74487480  0.28831514     0.97100
Al1658     Al  0.88998320  0.71757422  0.24956359     1.55600
O1659       O  0.74588475  0.62018451  0.27315734    -0.74700
C1660       C  0.90277318  0.65607255  0.21054430     1.01200
C1661       C  0.84474775  0.74718895  0.21029175     0.96100
O1662       O  0.80816843  0.72688379  0.22512823    -0.80000
O1663       O  0.69955914  0.79143276  0.28372060    -0.79400
C1664       C  0.59800688  0.84482580  0.20990750     0.99900
O1665       O  0.58165970  0.80828738  0.22481480    -0.68600
O1666       O  0.62195860  0.75948265  0.21486180    -0.72200
Al1667     Al  0.61016956  0.78301333  0.24909639     1.49000
C1668       C  0.65596206  0.75369374  0.21016262     0.95200
O1669       O  0.74122286  0.86300895  0.21521991    -0.78400
O1670       O  0.70855678  0.90858953  0.28371856    -0.71900
Al1671     Al  0.71735001  0.82768461  0.24944866     1.90100
O1672       O  0.72678578  0.91900623  0.22530436    -0.71000
O1673       O  0.61991898  0.87425136  0.27313114    -0.70900
O1674       O  0.63776373  0.87877782  0.21484701    -0.76500
O1675       O  0.59134679  0.80044597  0.28333438    -0.74700
O1676       O  0.66673616  0.83362431  0.24932896    -1.10800
O1677       O  0.62583869  0.74619456  0.27324355    -0.70000
C1678       C  0.66107355  0.75539568  0.28822893     1.00700
C1679       C  0.74710381  0.90282307  0.21041799     0.97100
Al1680     Al  0.67269859  0.89018553  0.24926764     1.55600
O1681       O  0.69233898  0.77388582  0.22523110    -0.74700
C1682       C  0.59373726  0.83887310  0.28793631     1.01200
C1683       C  0.74455648  0.90616206  0.28845870     0.96100
O1684       O  0.75393102  0.88018276  0.27361154    -0.80000
C1685       C  0.95705774  0.49990555  0.37448235     0.04600
C1686       C  0.95705297  0.95715948  0.37437894     0.04600
C1687       C  0.99980476  0.95716562  0.37423068     0.04600
C1688       C  0.54255789  0.99991653  0.37421143     0.04600
C1689       C  0.54256147  0.54266243  0.37430605     0.04600
C1690       C  0.49981306  0.54265690  0.37445173     0.04600
C1691       C  0.64045505  0.97831399  0.39651135     0.05500
C1692       C  0.67211049  0.99980367  0.37397058    -0.10700
C1693       C  0.66177696  0.52136376  0.35151411     0.03000
C1694       C  0.61934686  0.52080029  0.35133696    -0.09200
C1695       C  0.58754619  0.99990747  0.37412831     0.05500
C1696       C  0.59864717  0.97898163  0.39684445    -0.08600
H1697       H  0.70470813  0.99977486  0.37391424     0.11100
H1698       H  0.61121159  0.53696127  0.33365398     0.08600
H1699       H  0.57454249  0.96287950  0.41459456     0.08400
C1700       C  0.85925579  0.52127383  0.39721718     0.05500
C1701       C  0.90111286  0.52068899  0.39739420    -0.10700
C1702       C  0.91205556  0.99989066  0.37457730     0.03000
C1703       C  0.88006826  0.97907255  0.35183783    -0.09200
C1704       C  0.83759567  0.97840881  0.35217013     0.05500
C1705       C  0.82739747  0.99981087  0.37473508    -0.08600
H1706       H  0.92538284  0.53677342  0.41509407     0.11100
H1707       H  0.88809903  0.96304573  0.33406734     0.08600
H1708       H  0.79477668  0.99979200  0.37478912     0.08400
C1709       C  0.97818609  0.64053836  0.35221044     0.05500
C1710       C  0.99973564  0.67221229  0.37474360    -0.10700
C1711       C  0.52134825  0.66189927  0.39717867     0.03000
C1712       C  0.52078198  0.61947006  0.39733922    -0.09200
C1713       C  0.99981548  0.58764539  0.37455404     0.05500
C1714       C  0.97883655  0.59872808  0.35186089    -0.08600
H1715       H  0.99970920  0.70480804  0.37481146     0.11100
H1716       H  0.53698818  0.61134989  0.41500536     0.08600
H1717       H  0.96268175  0.57460822  0.33411492     0.08400
C1718       C  0.64030494  0.66203477  0.35172758     0.05500
C1719       C  0.59845077  0.61958364  0.35151365    -0.10700
C1720       C  0.58755618  0.58765874  0.37425705     0.03000
C1721       C  0.61958205  0.59865760  0.39695905    -0.09200
C1722       C  0.66203919  0.64049410  0.39666093     0.05500
C1723       C  0.67219309  0.67227450  0.37417310    -0.08600
H1724       H  0.57415671  0.61152177  0.33383700     0.11100
H1725       H  0.61159203  0.57445505  0.41467149     0.08600
H1726       H  0.70481246  0.70488543  0.37414347     0.08400
C1727       C  0.52112541  0.85935023  0.35143756     0.05500
C1728       C  0.99973096  0.82752612  0.37393202    -0.10700
C1729       C  0.97839733  0.83775394  0.39652344     0.03000
C1730       C  0.97906228  0.88022186  0.39687172    -0.09200
C1731       C  0.99980152  0.91217208  0.37412092     0.05500
C1732       C  0.52053504  0.90120286  0.35127723    -0.08600
H1733       H  0.99970827  0.79490611  0.37386581     0.11100
H1734       H  0.96308816  0.88827307  0.41466145     0.08600
H1735       H  0.53656290  0.92544703  0.33356962     0.08400
C1736       C  0.85906106  0.83782754  0.35193970     0.05500
C1737       C  0.82743192  0.82751368  0.37451251    -0.10700
C1738       C  0.83782411  0.85924656  0.39704089     0.03000
C1739       C  0.88028795  0.90109010  0.39725208    -0.09200
C1740       C  0.91204814  0.91215952  0.37442532     0.05500
C1741       C  0.90088291  0.88030250  0.35164090    -0.08600
H1742       H  0.79482098  0.79489072  0.37454422     0.11100
H1743       H  0.88847706  0.92525510  0.41498938     0.08600
H1744       H  0.92496165  0.88842525  0.33386772     0.08400
C1745       C  0.65673436  0.72367059  0.31064573    -0.10900
C1746       C  0.65012616  0.69561631  0.32923812    -0.12500
C1747       C  0.54472252  0.84952577  0.32887830    -0.10900
C1748       C  0.56617505  0.84300625  0.31028152    -0.12500
C1749       C  0.77604302  0.93349884  0.31098649    -0.10900
C1750       C  0.80398841  0.95484427  0.32965472    -0.12500
C1751       C  0.93313587  0.65717148  0.31110513    -0.10900
C1752       C  0.95451010  0.65053196  0.32974082    -0.12500
C1753       C  0.72329307  0.56655393  0.31041997    -0.10900
C1754       C  0.69527139  0.54506959  0.32899848    -0.12500
C1755       C  0.84257630  0.77639411  0.31076375    -0.10900
C1756       C  0.84908155  0.80430530  0.32940891    -0.12500
C1757       C  0.54774344  0.85233302  0.16841595    -0.10900
C1758       C  0.57037913  0.84803228  0.18722776    -0.12500
C1759       C  0.85232186  0.80516323  0.16893021    -0.10900
C1760       C  0.84802107  0.77818257  0.18770524    -0.12500
C1761       C  0.95338077  0.64879323  0.16927755    -0.10900
C1762       C  0.93069733  0.65302643  0.18804420    -0.12500
C1763       C  0.64882164  0.69607813  0.16873849    -0.10900
C1764       C  0.65300618  0.72291743  0.18755237    -0.12500
C1765       C  0.69596150  0.54775536  0.16851584    -0.10900
C1766       C  0.72284219  0.57037057  0.18734852    -0.12500
C1767       C  0.77811083  0.93066326  0.18789410    -0.10900
C1768       C  0.80505836  0.95336533  0.16913160    -0.12500
C1769       C  0.84295447  0.56641547  0.43833066    -0.10900
C1770       C  0.84946048  0.54493160  0.41974914    -0.12500
C1771       C  0.84770473  0.57053645  0.06137814    -0.10900
C1772       C  0.85200145  0.54791296  0.08019810    -0.12500
C1773       C  0.72372140  0.65701823  0.43774246    -0.10900
C1774       C  0.69568778  0.65040517  0.41912791    -0.12500
C1775       C  0.93350973  0.77625044  0.43770634    -0.10900
C1776       C  0.95486811  0.80417206  0.41904195    -0.12500
C1777       C  0.69563827  0.64897079  0.07962342    -0.10900
C1778       C  0.72250695  0.65317304  0.06082782    -0.12500
C1779       C  0.93034853  0.77835166  0.06076772    -0.10900
C1780       C  0.95303240  0.80533821  0.07952883    -0.12500
C1781       C  0.56653991  0.72346225  0.43827328    -0.10900
C1782       C  0.54507889  0.69540970  0.41969438    -0.12500
C1783       C  0.54740418  0.69619101  0.08018887    -0.10900
C1784       C  0.57002484  0.72304174  0.06135733    -0.12500
C1785       C  0.65709304  0.93332388  0.43765568    -0.10900
C1786       C  0.65046043  0.95467883  0.41900416    -0.12500
C1787       C  0.77643982  0.84284669  0.43822671    -0.10900
C1788       C  0.80436867  0.84934807  0.41959831    -0.12500
C1789       C  0.64844443  0.95349743  0.07949805    -0.10900
C1790       C  0.65265990  0.93079304  0.06073749    -0.12500
C1791       C  0.80470580  0.85245295  0.08010311    -0.10900
C1792       C  0.77775660  0.84816683  0.06130440    -0.12500
O1793       O  0.63754283  0.75956826  0.53393227    -0.79400
C1794       C  0.66132278  0.90602550  0.96018372     0.99900
O1795       O  0.62601376  0.88006000  0.97509185    -0.68600
O1796       O  0.59157562  0.79128438  0.96511558    -0.72200
Al1797     Al  0.61019060  0.82764243  0.49932712     1.49000
C1798       C  0.59400055  0.75524071  0.96063675     0.95200
O1799       O  0.70880771  0.80035169  0.96531045    -0.78400
O1800       O  0.74103274  0.87885078  0.53370458    -0.71900
Al1801     Al  0.67270921  0.78300401  0.99962294     1.90100
O1802       O  0.75411679  0.87418106  0.97539706    -0.71000
O1803       O  0.69220463  0.91904651  0.52328874    -0.70900
O1804       O  0.69977917  0.90848678  0.96487056    -0.76500
O1805       O  0.62178345  0.86307040  0.53350540    -0.74700
O1806       O  0.66675488  0.83360346  0.49936116    -1.10800
O1807       O  0.58151038  0.77392169  0.52363738    -0.70000
C1808       C  0.59776386  0.75378047  0.53869527     1.00700
C1809       C  0.74483930  0.83876889  0.96062560     0.97100
Al1810     Al  0.71737023  0.89017040  0.49930768     1.55600
O1811       O  0.62009763  0.74609338  0.97559541    -0.74700
C1812       C  0.65574643  0.90290008  0.53823186     1.01200
C1813       C  0.74685893  0.84492019  0.53865612     0.96100
O1814       O  0.72661749  0.80835708  0.52379392    -0.80000
O1815       O  0.87850964  0.63794606  0.53380375    -0.79400
C1816       C  0.75536649  0.66133061  0.96021233     0.99900
O1817       O  0.74609236  0.62609305  0.97520287    -0.68600
O1818       O  0.80035098  0.59159189  0.96521098    -0.72200
Al1819     Al  0.78283128  0.61039544  0.49941476     1.49000
C1820       C  0.83878747  0.59397554  0.96066301     0.95200
O1821       O  0.90851822  0.70876917  0.96496212    -0.78400
O1822       O  0.86273490  0.74141017  0.53338116    -0.71900
Al1823     Al  0.89001465  0.67290194  0.99939370     1.90100
O1824       O  0.88011343  0.75415870  0.97502076    -0.71000
O1825       O  0.77362034  0.69253786  0.52322659    -0.70900
O1826       O  0.79140058  0.69980171  0.96476694    -0.76500
O1827       O  0.75920328  0.62217000  0.53360693    -0.74700
O1828       O  0.83345402  0.66694991  0.99924735    -1.10800
O1829       O  0.80803398  0.58186108  0.52374420    -0.70000
C1830       C  0.84454257  0.59818700  0.53869764     1.00700
C1831       C  0.90612011  0.74477599  0.96021069     0.97100
Al1832     Al  0.82752253  0.71756371  0.49909958     1.55600
O1833       O  0.87413501  0.62013789  0.97551465    -0.74700
C1834       C  0.75337584  0.65615604  0.53827381     1.01200
C1835       C  0.90254763  0.74730447  0.53823586     0.96100
O1836       O  0.91876890  0.72697863  0.52338905    -0.80000
C1837       C  0.50037069  0.95805469  0.62422449     0.04600
C1838       C  0.95776917  0.95805060  0.62438919     0.04600
C1839       C  0.95777205  0.50065131  0.62449805     0.04600
C1840       C  0.50038145  0.54326061  0.62447446     0.04600
C1841       C  0.54299298  0.54326714  0.62430731     0.04600
C1842       C  0.54298477  0.50066100  0.62418980     0.04600
C1843       C  0.86065278  0.52295292  0.60242475     0.05500
C1844       C  0.90220907  0.52199230  0.60203857    -0.10700
C1845       C  0.91296040  0.50065059  0.62457366     0.03000
C1846       C  0.88105192  0.97930440  0.64716279    -0.09200
C1847       C  0.83853722  0.97836651  0.64688281     0.05500
C1848       C  0.82847436  0.50066660  0.62468038    -0.08600
H1849       H  0.92655428  0.53843104  0.58443494     0.11100
H1850       H  0.88909003  0.96284080  0.66471641     0.08600
H1851       H  0.79587173  0.50066677  0.62471753     0.08400
C1852       C  0.63996322  0.97845387  0.60176199     0.05500
C1853       C  0.67229611  0.50066174  0.62398785    -0.10700
C1854       C  0.66237636  0.52286219  0.64626911     0.03000
C1855       C  0.61986018  0.52190308  0.64665806    -0.09200
C1856       C  0.58780110  0.50066472  0.62410113     0.05500
C1857       C  0.59839487  0.97941045  0.60148549    -0.08600
H1858       H  0.70489526  0.50065380  0.62395018     0.11100
H1859       H  0.61192955  0.53826716  0.66428253     0.08600
H1860       H  0.57391635  0.96302020  0.58391576     0.08400
C1861       C  0.66219835  0.64039075  0.60191413     0.05500
C1862       C  0.61967405  0.59881181  0.60162588    -0.10700
C1863       C  0.58782069  0.58808697  0.62426138     0.03000
C1864       C  0.59863655  0.62003278  0.64685481    -0.09200
C1865       C  0.64018294  0.66257381  0.64647763     0.05500
C1866       C  0.67231170  0.67261942  0.62417345    -0.08600
H1867       H  0.61158726  0.57442558  0.58402641     0.11100
H1868       H  0.57433306  0.61200643  0.66449181     0.08600
H1869       H  0.70490813  0.70523497  0.62414120     0.08400
C1870       C  0.97827224  0.64027784  0.64698459     0.05500
C1871       C  0.97920001  0.59869544  0.64723027    -0.10700
C1872       C  0.50037801  0.58807113  0.62458174     0.03000
C1873       C  0.52154885  0.62010184  0.60201840    -0.09200
C1874       C  0.52254209  0.66262866  0.60243686     0.05500
C1875       C  0.50043070  0.67258727  0.62475387    -0.08600
H1876       H  0.96285421  0.57423604  0.66480222     0.11100
H1877       H  0.53784967  0.61214674  0.58436845     0.08600
H1878       H  0.50045190  0.70519748  0.62481436     0.08400
C1879       C  0.86081988  0.83871537  0.64670157     0.05500
C1880       C  0.90240784  0.88122670  0.64699163    -0.10700
C1881       C  0.91295749  0.91323572  0.62443868     0.03000
C1882       C  0.88084900  0.90258431  0.60192797    -0.09200
C1883       C  0.83832647  0.86102326  0.60230511     0.05500
C1884       C  0.82844005  0.82874960  0.62452501    -0.08600
H1885       H  0.92692280  0.88919287  0.66452985     0.11100
H1886       H  0.88874712  0.92700953  0.58435174     0.08600
H1887       H  0.79582303  0.79614696  0.62455576     0.08400
C1888       C  0.52273903  0.86097055  0.64621404     0.05500
C1889       C  0.50041635  0.82878921  0.62395594    -0.10700
C1890       C  0.97804719  0.83882605  0.60178307     0.03000
C1891       C  0.97895326  0.88132323  0.60153609    -0.09200
C1892       C  0.50035917  0.91324385  0.62412549     0.05500
C1893       C  0.52176243  0.90251186  0.64663239    -0.08600
H1894       H  0.50044053  0.79619978  0.62389465     0.11100
H1895       H  0.96243521  0.88934517  0.58400448     0.08600
H1896       H  0.53824009  0.92686250  0.66423718     0.08400
O1897       O  0.75939438  0.63783093  0.71484587    -0.79400
C1898       C  0.90583881  0.66144111  0.78859167     0.99900
O1899       O  0.87989579  0.62617349  0.77363334    -0.68600
O1900       O  0.79111476  0.59168344  0.78358057    -0.72200
Al1901     Al  0.82748228  0.61040283  0.74938781     1.49000
C1902       C  0.75505389  0.59406981  0.78807626     0.95200
O1903       O  0.80012238  0.70884929  0.78358346    -0.78400
O1904       O  0.87867306  0.74133349  0.71521113    -0.71900
Al1905     Al  0.78280497  0.67288247  0.74920998     1.90100
O1906       O  0.87395386  0.75422534  0.77354072    -0.71000
O1907       O  0.91889720  0.69249366  0.72553330    -0.70900
O1908       O  0.90828572  0.69989743  0.78396498    -0.76500
O1909       O  0.86293386  0.62210052  0.71522101    -0.74700
O1910       O  0.83342179  0.66695097  0.74944248    -1.10800
O1911       O  0.77376318  0.58178531  0.72504787    -0.70000
C1912       C  0.75360787  0.59806736  0.71002670     1.00700
C1913       C  0.83852965  0.74487478  0.78831513     0.97100
Al1914     Al  0.88998319  0.71757423  0.74956356     1.55600
O1915       O  0.74588480  0.62018453  0.77315740    -0.74700
C1916       C  0.90277317  0.65607248  0.71054427     1.01200
C1917       C  0.84474769  0.74718887  0.71029171     0.96100
O1918       O  0.80816839  0.72688374  0.72512822    -0.80000
O1919       O  0.69955919  0.79143286  0.78372056    -0.79400
C1920       C  0.59800684  0.84482566  0.70990750     0.99900
O1921       O  0.58165965  0.80828730  0.72481485    -0.68600
O1922       O  0.62195851  0.75948248  0.71486185    -0.72200
Al1923     Al  0.61016952  0.78301327  0.74909644     1.49000
C1924       C  0.65596201  0.75369366  0.71016266     0.95200
O1925       O  0.74122286  0.86300888  0.71521992    -0.78400
O1926       O  0.70855682  0.90858960  0.78371849    -0.71900
Al1927     Al  0.71735001  0.82768460  0.74944865     1.90100
O1928       O  0.72678576  0.91900616  0.72530431    -0.71000
O1929       O  0.61991896  0.87425140  0.77313111    -0.70900
O1930       O  0.63776369  0.87877770  0.71484697    -0.76500
O1931       O  0.59134680  0.80044603  0.78333444    -0.74700
O1932       O  0.66673615  0.83362428  0.74932898    -1.10800
O1933       O  0.62583872  0.74619459  0.77324361    -0.70000
C1934       C  0.66107361  0.75539580  0.78822897     1.00700
C1935       C  0.74710369  0.90282294  0.71041790     0.97100
Al1936     Al  0.67269859  0.89018551  0.74926760     1.55600
O1937       O  0.69233895  0.77388576  0.72523115    -0.74700
C1938       C  0.59373729  0.83887320  0.78793636     1.01200
C1939       C  0.74455648  0.90616207  0.78845862     0.96100
O1940       O  0.75393099  0.88018273  0.77361148    -0.80000
C1941       C  0.95705784  0.49990570  0.87448225     0.04600
C1942       C  0.95705306  0.95715966  0.87437883     0.04600
C1943       C  0.99980494  0.95716588  0.87423079     0.04600
C1944       C  0.54255807  0.99991680  0.87421147     0.04600
C1945       C  0.54256160  0.54266257  0.87430609     0.04600
C1946       C  0.49981318  0.54265699  0.87445159     0.04600
C1947       C  0.64045511  0.97831411  0.89651148     0.05500
C1948       C  0.67211054  0.99980371  0.87397065    -0.10700
C1949       C  0.66177702  0.52136373  0.85151422     0.03000
C1950       C  0.61934685  0.52080042  0.85133690    -0.09200
C1951       C  0.58754632  0.99990762  0.87412844     0.05500
C1952       C  0.59864732  0.97898179  0.89684449    -0.08600
H1953       H  0.70470811  0.99977490  0.87391437     0.11100
H1954       H  0.61121188  0.53696116  0.83365441     0.08600
H1955       H  0.57454251  0.96287959  0.91459486     0.08400
C1956       C  0.85925577  0.52127391  0.89721693     0.05500
C1957       C  0.90111324  0.52068936  0.89739424    -0.10700
C1958       C  0.91205547  0.99989061  0.87457715     0.03000
C1959       C  0.88006827  0.97907245  0.85183772    -0.09200
C1960       C  0.83759567  0.97840888  0.85216997     0.05500
C1961       C  0.82739768  0.99981117  0.87473486    -0.08600
H1962       H  0.92538212  0.53677303  0.91509341     0.11100
H1963       H  0.88809896  0.96304571  0.83406729     0.08600
H1964       H  0.79477655  0.99979217  0.87478890     0.08400
C1965       C  0.97818603  0.64053827  0.85221022     0.05500
C1966       C  0.99973575  0.67221234  0.87474345    -0.10700
C1967       C  0.52134826  0.66189915  0.89717851     0.03000
C1968       C  0.52078197  0.61947001  0.89733915    -0.09200
C1969       C  0.99981541  0.58764532  0.87455382     0.05500
C1970       C  0.97883701  0.59872871  0.85186122    -0.08600
H1971       H  0.99970904  0.70480813  0.87481125     0.11100
H1972       H  0.53698793  0.61134958  0.91500519     0.08600
H1973       H  0.96268084  0.57460683  0.83411380     0.08400
C1974       C  0.64030519  0.66203510  0.85172768     0.05500
C1975       C  0.59845095  0.61958390  0.85151370    -0.10700
C1976       C  0.58755638  0.58765900  0.87425708     0.03000
C1977       C  0.61958222  0.59865786  0.89695907    -0.09200
C1978       C  0.66203942  0.64049443  0.89666100     0.05500
C1979       C  0.67219287  0.67227438  0.87417320    -0.08600
H1980       H  0.57415699  0.61152221  0.83383700     0.11100
H1981       H  0.61159229  0.57445537  0.91467156     0.08600
H1982       H  0.70481351  0.70488653  0.87414354     0.08400
C1983       C  0.52112540  0.85935049  0.85143772     0.05500
C1984       C  0.99973109  0.82752594  0.87393214    -0.10700
C1985       C  0.97839731  0.83775425  0.89652361     0.03000
C1986       C  0.97906253  0.88022199  0.89687162    -0.09200
C1987       C  0.99980156  0.91217232  0.87412114     0.05500
C1988       C  0.52053528  0.90120339  0.85127706    -0.08600
H1989       H  0.99970815  0.79490723  0.87386600     0.11100
H1990       H  0.96308773  0.88827341  0.91466198     0.08600
H1991       H  0.53656237  0.92544663  0.83357032     0.08400
C1992       C  0.85906140  0.83782782  0.85193953     0.05500
C1993       C  0.82743165  0.82751339  0.87451240    -0.10700
C1994       C  0.83782444  0.85924679  0.89704074     0.03000
C1995       C  0.88028827  0.90109045  0.89725218    -0.09200
C1996       C  0.91204838  0.91215972  0.87442511     0.05500
C1997       C  0.90088283  0.88030257  0.85164093    -0.08600
H1998       H  0.79482234  0.79489195  0.87454402     0.11100
H1999       H  0.88847728  0.92525490  0.91498890     0.08600
H2000       H  0.92496233  0.88842548  0.83386716     0.08400
C2001       C  0.65673446  0.72367071  0.81064578    -0.10900
C2002       C  0.65012635  0.69561651  0.82923822    -0.12500
C2003       C  0.54472258  0.84952600  0.82887836    -0.10900
C2004       C  0.56617499  0.84300637  0.81028155    -0.12500
C2005       C  0.77604300  0.93349886  0.81098639    -0.10900
C2006       C  0.80398845  0.95484429  0.82965459    -0.12500
C2007       C  0.93313583  0.65717149  0.81110506    -0.10900
C2008       C  0.95451012  0.65053197  0.82974072    -0.12500
C2009       C  0.72329309  0.56655390  0.81042002    -0.10900
C2010       C  0.69527144  0.54506956  0.82899855    -0.12500
C2011       C  0.84257638  0.77639419  0.81076370    -0.10900
C2012       C  0.84908174  0.80430547  0.82940882    -0.12500
C2013       C  0.54774341  0.85233291  0.66841597    -0.10900
C2014       C  0.57037904  0.84803209  0.68722778    -0.12500
C2015       C  0.85232167  0.80516300  0.66893010    -0.10900
C2016       C  0.84802097  0.77818239  0.68770515    -0.12500
C2017       C  0.95338069  0.64879304  0.66927749    -0.10900
C2018       C  0.93069725  0.65302633  0.68804410    -0.12500
C2019       C  0.64882153  0.69607805  0.66873852    -0.10900
C2020       C  0.65300603  0.72291731  0.68755242    -0.12500
C2021       C  0.69596133  0.54775536  0.66851591    -0.10900
C2022       C  0.72284213  0.57037051  0.68734855    -0.12500
C2023       C  0.77811083  0.93066320  0.68789402    -0.10900
C2024       C  0.80505825  0.95336528  0.66913145    -0.12500
C2025       C  0.84295456  0.56641550  0.93833055    -0.10900
C2026       C  0.84946043  0.54493160  0.91974897    -0.12500
C2027       C  0.84770445  0.57053636  0.56137812    -0.10900
C2028       C  0.85200124  0.54791283  0.58019802    -0.12500
C2029       C  0.72372146  0.65701826  0.93774254    -0.10900
C2030       C  0.69568790  0.65040530  0.91912798    -0.12500
C2031       C  0.93350983  0.77625053  0.93770635    -0.10900
C2032       C  0.95486819  0.80417233  0.91904205    -0.12500
C2033       C  0.69563805  0.64897066  0.57962337    -0.10900
C2034       C  0.72250675  0.65317296  0.56082778    -0.12500
C2035       C  0.93034837  0.77835158  0.56076777    -0.10900
C2036       C  0.95303223  0.80533808  0.57952889    -0.12500
C2037       C  0.56653999  0.72346229  0.93827316    -0.10900
C2038       C  0.54507907  0.69540975  0.91969422    -0.12500
C2039       C  0.54740399  0.69619094  0.58018887    -0.10900
C2040       C  0.57002470  0.72304170  0.56135736    -0.12500
C2041       C  0.65709318  0.93332411  0.93765576    -0.10900
C2042       C  0.65046053  0.95467905  0.91900427    -0.12500
C2043       C  0.77643996  0.84284680  0.93822657    -0.10900
C2044       C  0.80436883  0.84934818  0.91959819    -0.12500
C2045       C  0.64844420  0.95349730  0.57949805    -0.10900
C2046       C  0.65265969  0.93079294  0.56073746    -0.12500
C2047       C  0.80470556  0.85245285  0.58010318    -0.10900
C2048       C  0.77775639  0.84816680  0.56130446    -0.12500
loop_ 
_geom_bond_atom_site_label_1 
_geom_bond_atom_site_label_2 
_geom_bond_distance 
_geom_bond_site_symmetry_2 
_ccdc_geom_bond_type 
O1           C16   1.258       .  A
O1         Al265   1.893   1_554  S
C2           O12   1.259       .  A
C2            O3   1.260       .  A
C2          C249   1.434       .  S
O3         Al261   1.911       .  S
O4            C6   1.259       .  A
O4         Al261   1.898       .  S
Al5          O13   1.893   1_556  S
Al5          O15   1.913   1_556  S
Al5         O259   1.911       .  S
Al5         O260   1.898       .  S
Al5          O14   1.791       .  S
C6           O19   1.260       .  A
C6          C245   1.434       .  S
O7           C17   1.259       .  A
O7           Al9   1.898       .  S
O8           C21   1.258       .  A
O8          Al18   1.893   1_554  S
Al9          O19   1.911       .  S
Al9         O257   1.893       .  S
Al9         O278   1.913       .  S
Al9         O270   1.791       .  S
O10          C17   1.260       .  A
O10        Al274   1.912       .  S
O11          C20   1.260       .  A
O11         Al18   1.914   1_554  S
O12        Al274   1.898       .  S
O13          C20   1.258       .  A
O14         Al18   1.791       .  S
O14        Al265   1.791       .  S
O15          C16   1.260       .  A
C16         C248   1.433       .  S
C17         C251   1.434       .  S
Al18        O266   1.912       .  S
Al18        O268   1.898       .  S
C20         C254   1.433       .  S
C21          O22   1.260       .  A
C21         C256   1.432       .  S
O22        Al265   1.913   1_554  S
O23          C38   1.258       .  A
O23        Al287   1.893   1_554  S
C24          O34   1.259       .  A
C24          O25   1.260       .  A
C24         C237   1.434       .  S
O25        Al283   1.911       .  S
O26          C28   1.259       .  A
O26        Al283   1.898       .  S
Al27         O35   1.893   1_556  S
Al27         O37   1.913   1_556  S
Al27        O281   1.911       .  S
Al27        O282   1.898       .  S
Al27        O292   1.790       .  S
C28          O41   1.260       .  A
C28         C233   1.434       .  S
O29          C39   1.259       .  A
O29         Al31   1.898       .  S
O30          C43   1.258       .  A
O30         Al40   1.893   1_554  S
Al31         O41   1.912       .  S
Al31        O279   1.893       .  S
Al31        O300   1.914       .  S
Al31         O36   1.791       .  S
O32          C39   1.260       .  A
O32        Al296   1.912       .  S
O33          C42   1.260       .  A
O33         Al40   1.914   1_554  S
O34        Al296   1.898       .  S
O35          C42   1.258       .  A
O36        Al283   1.790       .  S
O36        Al296   1.791       .  S
O37          C38   1.260       .  A
C38         C235   1.433       .  S
C39         C239   1.434       .  S
Al40        O288   1.912       .  S
Al40        O290   1.898       .  S
Al40        O292   1.791       .  S
C42         C242   1.433       .  S
C43          O44   1.260       .  A
C43         C243   1.433       .  S
O44        Al287   1.914   1_554  S
C45         C100   1.491       .  S
C45        C1070   1.417   1_455  A
C45         C562   1.417       .  A
C46          C89   1.490       .  S
C46        C1069   1.417       .  A
C46         C559   1.417       .  A
C47          C53   1.491       .  S
C47         C558   1.417   1_545  A
C47        C1072   1.417       .  A
C48          C80   1.491       .  S
C48          C49   1.417       .  A
C48        C1071   1.417   1_455  A
C49          C71   1.491       .  S
C49          C50   1.417       .  A
C50          C64   1.491       .  S
C50         C557   1.417   1_545  A
C51         C236   1.437       .  S
C51          C52   1.399       .  A
C51          C56   1.401       .  A
C52          C53   1.403       .  A
C52          H57   1.084       .  S
C53         C566   1.404   1_545  A
C54          C55   1.399       .  A
C54         C565   1.404       .  A
C54          H58   1.084       .  S
C55         C232   1.437       .  S
C55         C568   1.401       .  A
C56         C567   1.401   1_545  A
C56          H59   1.084       .  S
C60         C253   1.437       .  S
C60          C65   1.399       .  A
C60         C573   1.401       .  A
C61          C62   1.401       .  A
C61         C572   1.401   1_545  A
C61          H66   1.084       .  S
C62         C229   1.437       .  S
C62          C63   1.399       .  A
C63          C64   1.403       .  A
C63          H67   1.084       .  S
C64         C577   1.404   1_545  A
C65         C576   1.404       .  A
C65          H68   1.084       .  S
C69         C241   1.438       .  S
C69          C70   1.399       .  A
C69          C74   1.401       .  A
C70          C71   1.404       .  A
C70          H75   1.084       .  S
C71          C72   1.403       .  A
C72          C73   1.399       .  A
C72          H76   1.084       .  S
C73         C227   1.437       .  S
C73          C74   1.401       .  A
C74          H77   1.084       .  S
C78         C225   1.438       .  S
C78          C79   1.399       .  A
C78        C1107   1.401       .  A
C79        C1104   1.404       .  A
C79          H84   1.084       .  S
C80          C81   1.403       .  A
C80        C1103   1.404   1_455  A
C81          C82   1.399       .  A
C81          H85   1.084       .  S
C82         C247   1.437       .  S
C82          C83   1.401       .  A
C83        C1102   1.401   1_455  A
C83          H86   1.085       .  S
C87         C223   1.437       .  S
C87          C88   1.399       .  A
C87          C92   1.401       .  A
C88          C89   1.404       .  A
C88          H93   1.084       .  S
C89          C90   1.403       .  A
C90          C91   1.399       .  A
C90          H94   1.084       .  S
C91         C255   1.437       .  S
C91          C92   1.401       .  A
C92          H95   1.084       .  S
C96         C221   1.437       .  S
C96          C97   1.401       .  A
C96         C101   1.399       .  A
C97        C1122   1.401   1_455  A
C97         H102   1.084       .  S
C98         C244   1.437       .  S
C98          C99   1.399       .  A
C98        C1121   1.401       .  A
C99        C1124   1.404       .  A
C99         H103   1.084       .  S
C100        C101   1.403       .  A
C100       C1123   1.404   1_455  A
C101        H104   1.084       .  S
O105        C120   1.258       .  A
O105       Al113   1.893       .  S
C106        O116   1.259       .  A
C106        O107   1.260       .  A
C106        C215   1.434       .  S
O107       Al109   1.911       .  S
O108        C110   1.259       .  A
O108       Al109   1.898       .  S
Al109       O117   1.893       .  S
Al109       O119   1.914       .  S
Al109       O118   1.791       .  S
C110        O123   1.260       .  A
C110        C217   1.434       .  S
O111        C121   1.259       .  A
O111       Al113   1.898       .  S
O112        C125   1.258       .  A
O112       Al122   1.893       .  S
Al113       O126   1.914       .  S
Al113       O123   1.912       .  S
Al113       O118   1.791       .  S
O114        C121   1.260       .  A
O114       Al122   1.912       .  S
O115        C124   1.260       .  A
O115       Al122   1.914       .  S
O116       Al122   1.898       .  S
O117        C124   1.258       .  A
O118       Al122   1.791       .  S
O119        C120   1.260       .  A
C120        C230   1.433       .  S
C121        C219   1.434       .  S
C124        C226   1.433       .  S
C125        O126   1.260       .  A
C125        C224   1.432       .  S
O127        C142   1.259       .  A
O127       Al135   1.898       .  S
C128        O138   1.258       .  A
C128        O129   1.260       .  A
C128        C222   1.432       .  S
O129       Al131   1.913       .  S
O130        C132   1.258       .  A
O130       Al131   1.894       .  S
Al131       O139   1.898       .  S
Al131       O141   1.911       .  S
Al131       O140   1.791       .  S
C132        O145   1.260       .  A
C132        C228   1.433       .  S
O133        C143   1.258       .  A
O133       Al135   1.893       .  S
O134        C147   1.259       .  A
O134       Al144   1.898       .  S
Al135       O148   1.912       .  S
Al135       O145   1.914       .  S
Al135       O140   1.791       .  S
O136        C143   1.260       .  A
O136       Al144   1.914       .  S
O137        C146   1.260       .  A
O137       Al144   1.912       .  S
O138       Al144   1.893       .  S
O139        C146   1.259       .  A
O140       Al144   1.791       .  S
O141        C142   1.260       .  A
C142        C209   1.434       .  S
C143        C231   1.433       .  S
C146        C212   1.434       .  S
C147        O148   1.260       .  A
C147        C213   1.434       .  S
C149        C678   1.497       .  S
C149        C662   1.422       .  A
C149       C1178   1.422   1_565  A
C150        C204   1.497       .  S
C150        C151   1.422       .  A
C150        C661   1.422       .  A
C151        C195   1.497       .  S
C151       C1176   1.422       .  A
C152        C159   1.497       .  S
C152       C1175   1.422   1_455  A
C152        C665   1.422       .  A
C153        C184   1.496       .  S
C153        C154   1.422   1_455  A
C153        C664   1.422   1_545  A
C154       C1201   1.497       .  S
C154       C1173   1.422   1_545  A
C155        C250   1.439       .  S
C155        C156   1.398       .  A
C155        C160   1.402       .  A
C156        C669   1.398       .  A
C156        H161   1.085       .  S
C157        C218   1.439       .  S
C157        C158   1.402       .  A
C157        C668   1.398   1_545  A
C158        C671   1.407   1_545  A
C158        H162   1.084       .  S
C159        C160   1.407       .  A
C159        C670   1.407       .  A
C160        H163   1.084       .  S
C164        C234   1.439       .  S
C164        C165   1.402       .  A
C164        C681   1.398   1_545  A
C165        C678   1.407   1_545  A
C165        H170   1.084       .  S
C166        C661   1.497       .  S
C166        C167   1.407       .  A
C166        C677   1.407       .  A
C167        C168   1.402       .  A
C167        H171   1.084       .  S
C168        C214   1.439       .  S
C168        C169   1.398       .  A
C169        C676   1.398       .  A
C169        H172   1.085       .  S
C173        C216   1.439       .  S
C173        C174   1.398       .  A
C173        C178   1.402       .  A
C174       C1199   1.398       .  A
C174        H179   1.085       .  S
C175        C246   1.439       .  S
C175        C176   1.402       .  A
C175       C1198   1.398   1_455  A
C176       C1201   1.407   1_455  A
C176        H180   1.084       .  S
C177       C1178   1.497       .  S
C177        C178   1.407       .  A
C177       C1200   1.407       .  A
C178        H181   1.084       .  S
C182        C210   1.439       .  S
C182        C183   1.402       .  A
C182        C187   1.398       .  A
C183        C184   1.407       .  A
C183        H188   1.084       .  S
C184        C185   1.407       .  A
C185        C186   1.402       .  A
C185        H189   1.084       .  S
C186        C238   1.439       .  S
C186        C187   1.398       .  A
C187        H190   1.085       .  S
C191        C211   1.439       .  S
C191        C196   1.402       .  A
C191       C1216   1.398   1_455  A
C192        C193   1.398       .  A
C192       C1215   1.398       .  A
C192        H197   1.085       .  S
C193        C240   1.439       .  S
C193        C194   1.402       .  A
C194        C195   1.407       .  A
C194        H198   1.084       .  S
C195       C1220   1.407       .  A
C196       C1219   1.407   1_455  A
C196        H199   1.084       .  S
C200        C220   1.439       .  S
C200        C201   1.399       .  A
C200        C205   1.402       .  A
C201        C202   1.399       .  A
C201        H206   1.085       .  S
C202        C252   1.439       .  S
C202        C203   1.402       .  A
C203        C204   1.407       .  A
C203        H207   1.084       .  S
C204        C205   1.407       .  A
C205        H208   1.084       .  S
C209        C210   1.205       .  T
C211        C212   1.205       .  T
C213        C214   1.205       .  T
C215        C216   1.205       .  T
C217        C218   1.205       .  T
C219        C220   1.205       .  T
C221        C222   1.204       .  T
C223        C224   1.204       .  T
C225        C226   1.205       .  T
C227        C228   1.204       .  T
C229        C230   1.204       .  T
C231        C232   1.204       .  T
C233        C234   1.205       .  T
C235        C236   1.204       .  T
C237        C238   1.205       .  T
C239        C240   1.205       .  T
C241        C242   1.205       .  T
C243        C244   1.204       .  T
C245        C246   1.205       .  T
C247        C248   1.204       .  T
C249        C250   1.205       .  T
C251        C252   1.205       .  T
C253        C254   1.204       .  T
C255        C256   1.204       .  T
O257        C272   1.258       .  A
C258        O268   1.259       .  A
C258        O259   1.260       .  A
C258        C505   1.434       .  S
O260        C262   1.259       .  A
Al261       O269   1.893       .  S
Al261       O271   1.913       .  S
Al261       O270   1.791       .  S
C262        O275   1.260       .  A
C262        C501   1.434       .  S
O263        C273   1.259       .  A
O263       Al265   1.898       .  S
O264        C277   1.258       .  A
O264       Al274   1.893       .  S
Al265       O275   1.911       .  S
O266        C273   1.260       .  A
O267        C276   1.260       .  A
O267       Al274   1.914       .  S
O269        C276   1.258       .  A
O270       Al274   1.791       .  S
O271        C272   1.260       .  A
C272        C504   1.433       .  S
C273        C507   1.434       .  S
C276        C510   1.433       .  S
C277        O278   1.260       .  A
C277        C512   1.432       .  S
O279        C294   1.258       .  A
C280        O290   1.259       .  A
C280        O281   1.260       .  A
C280        C493   1.434       .  S
O282        C284   1.259       .  A
Al283       O291   1.893       .  S
Al283       O293   1.913       .  S
C284        O297   1.260       .  A
C284        C489   1.434       .  S
O285        C295   1.259       .  A
O285       Al287   1.898       .  S
O286        C299   1.258       .  A
O286       Al296   1.893       .  S
Al287       O297   1.912       .  S
Al287       O292   1.791       .  S
O288        C295   1.260       .  A
O289        C298   1.260       .  A
O289       Al296   1.914       .  S
O291        C298   1.258       .  A
O293        C294   1.260       .  A
C294        C491   1.433       .  S
C295        C495   1.434       .  S
C298        C498   1.433       .  S
C299        O300   1.260       .  A
C299        C499   1.433       .  S
C301        C356   1.491       .  S
C301       C1326   1.417   1_455  A
C301        C818   1.417       .  A
C302        C345   1.490       .  S
C302       C1325   1.417       .  A
C302        C815   1.417       .  A
C303        C309   1.491       .  S
C303        C814   1.417   1_545  A
C303       C1328   1.417       .  A
C304        C336   1.491       .  S
C304       C1327   1.417   1_455  A
C304        C305   1.417       .  A
C305        C327   1.491       .  S
C305        C306   1.417       .  A
C306        C320   1.491       .  S
C306        C813   1.417   1_545  A
C307        C492   1.437       .  S
C307        C308   1.399       .  A
C307        C312   1.401       .  A
C308        C309   1.403       .  A
C308        H313   1.084       .  S
C309        C822   1.404   1_545  A
C310        C821   1.404       .  A
C310        C311   1.399       .  A
C310        H314   1.084       .  S
C311        C488   1.437       .  S
C311        C824   1.401       .  A
C312        C823   1.401   1_545  A
C312        H315   1.084       .  S
C316        C509   1.437       .  S
C316        C829   1.401       .  A
C316        C321   1.399       .  A
C317        C828   1.401   1_545  A
C317        C318   1.401       .  A
C317        H322   1.085       .  S
C318        C485   1.437       .  S
C318        C319   1.399       .  A
C319        C320   1.403       .  A
C319        H323   1.084       .  S
C320        C833   1.404   1_545  A
C321        C832   1.404       .  A
C321        H324   1.084       .  S
C325        C497   1.438       .  S
C325        C326   1.399       .  A
C325        C330   1.401       .  A
C326        C327   1.404       .  A
C326        H331   1.084       .  S
C327        C328   1.403       .  A
C328        C329   1.399       .  A
C328        H332   1.084       .  S
C329        C483   1.437       .  S
C329        C330   1.401       .  A
C330        H333   1.084       .  S
C334        C481   1.438       .  S
C334        C335   1.399       .  A
C334       C1363   1.401       .  A
C335       C1360   1.404       .  A
C335        H340   1.084       .  S
C336       C1359   1.404   1_455  A
C336        C337   1.403       .  A
C337        C338   1.399       .  A
C337        H341   1.084       .  S
C338        C503   1.437       .  S
C338        C339   1.401       .  A
C339       C1358   1.401   1_455  A
C339        H342   1.085       .  S
C343        C479   1.437       .  S
C343        C344   1.399       .  A
C343        C348   1.401       .  A
C344        C345   1.404       .  A
C344        H349   1.084       .  S
C345        C346   1.403       .  A
C346        C347   1.399       .  A
C346        H350   1.084       .  S
C347        C511   1.437       .  S
C347        C348   1.401       .  A
C348        H351   1.085       .  S
C352        C477   1.437       .  S
C352        C353   1.401       .  A
C352        C357   1.399       .  A
C353       C1378   1.401   1_455  A
C353        H358   1.084       .  S
C354        C500   1.437       .  S
C354       C1377   1.401       .  A
C354        C355   1.399       .  A
C355       C1380   1.404       .  A
C355        H359   1.084       .  S
C356       C1379   1.404   1_455  A
C356        C357   1.403       .  A
C357        H360   1.084       .  S
O361        C376   1.258       .  A
O361       Al369   1.893       .  S
C362        O372   1.259       .  A
C362        O363   1.260       .  A
C362        C471   1.434       .  S
O363       Al365   1.911       .  S
O364        C366   1.259       .  A
O364       Al365   1.898       .  S
Al365       O373   1.893       .  S
Al365       O375   1.914       .  S
Al365       O374   1.791       .  S
C366        O379   1.260       .  A
C366        C473   1.434       .  S
O367        C377   1.259       .  A
O367       Al369   1.898       .  S
O368        C381   1.258       .  A
O368       Al378   1.893       .  S
Al369       O382   1.914       .  S
Al369       O379   1.912       .  S
Al369       O374   1.791       .  S
O370        C377   1.260       .  A
O370       Al378   1.912       .  S
O371        C380   1.260       .  A
O371       Al378   1.914       .  S
O372       Al378   1.898       .  S
O373        C380   1.258       .  A
O374       Al378   1.791       .  S
O375        C376   1.260       .  A
C376        C486   1.433       .  S
C377        C475   1.434       .  S
C380        C482   1.433       .  S
C381        O382   1.260       .  A
C381        C480   1.432       .  S
O383        C398   1.259       .  A
O383       Al391   1.898       .  S
C384        O394   1.258       .  A
C384        O385   1.260       .  A
C384        C478   1.432       .  S
O385       Al387   1.913       .  S
O386        C388   1.258       .  A
O386       Al387   1.894       .  S
Al387       O395   1.898       .  S
Al387       O397   1.911       .  S
Al387       O396   1.791       .  S
C388        O401   1.260       .  A
C388        C484   1.433       .  S
O389        C399   1.258       .  A
O389       Al391   1.893       .  S
O390        C403   1.259       .  A
O390       Al400   1.898       .  S
Al391       O404   1.912       .  S
Al391       O401   1.914       .  S
Al391       O396   1.791       .  S
O392        C399   1.260       .  A
O392       Al400   1.914       .  S
O393        C402   1.260       .  A
O393       Al400   1.912       .  S
O394       Al400   1.893       .  S
O395        C402   1.259       .  A
O396       Al400   1.791       .  S
O397        C398   1.260       .  A
C398        C465   1.434       .  S
C399        C487   1.433       .  S
C402        C468   1.434       .  S
C403        O404   1.260       .  A
C403        C469   1.434       .  S
C405        C934   1.497       .  S
C405        C918   1.422       .  A
C405       C1434   1.422   1_565  A
C406        C460   1.497       .  S
C406        C917   1.422       .  A
C406        C407   1.422       .  A
C407        C451   1.497       .  S
C407       C1432   1.422       .  A
C408        C415   1.497       .  S
C408       C1431   1.422   1_455  A
C408        C921   1.422       .  A
C409        C440   1.496       .  S
C409        C920   1.422   1_545  A
C409        C410   1.422   1_455  A
C410       C1457   1.497       .  S
C410       C1429   1.422   1_545  A
C411        C506   1.439       .  S
C411        C412   1.398       .  A
C411        C416   1.402       .  A
C412        C925   1.398       .  A
C412        H417   1.085       .  S
C413        C474   1.439       .  S
C413        C924   1.398   1_545  A
C413        C414   1.402       .  A
C414        C927   1.407   1_545  A
C414        H418   1.084       .  S
C415        C926   1.407       .  A
C415        C416   1.407       .  A
C416        H419   1.084       .  S
C420        C490   1.439       .  S
C420        C421   1.402       .  A
C420        C937   1.398   1_545  A
C421        C934   1.407   1_545  A
C421        H426   1.084       .  S
C422        C917   1.497       .  S
C422        C933   1.407       .  A
C422        C423   1.407       .  A
C423        C424   1.402       .  A
C423        H427   1.084       .  S
C424        C470   1.439       .  S
C424        C425   1.398       .  A
C425        C932   1.398       .  A
C425        H428   1.085       .  S
C429        C472   1.439       .  S
C429        C430   1.398       .  A
C429        C434   1.402       .  A
C430       C1455   1.398       .  A
C430        H435   1.085       .  S
C431        C502   1.439       .  S
C431       C1454   1.398   1_455  A
C431        C432   1.402       .  A
C432       C1457   1.407   1_455  A
C432        H436   1.084       .  S
C433       C1434   1.497       .  S
C433       C1456   1.407       .  A
C433        C434   1.407       .  A
C434        H437   1.084       .  S
C438        C466   1.439       .  S
C438        C439   1.402       .  A
C438        C443   1.398       .  A
C439        C440   1.407       .  A
C439        H444   1.084       .  S
C440        C441   1.407       .  A
C441        C442   1.402       .  A
C441        H445   1.084       .  S
C442        C494   1.439       .  S
C442        C443   1.398       .  A
C443        H446   1.085       .  S
C447        C467   1.439       .  S
C447       C1472   1.399   1_455  A
C447        C452   1.402       .  A
C448       C1471   1.398       .  A
C448        C449   1.398       .  A
C448        H453   1.085       .  S
C449        C496   1.439       .  S
C449        C450   1.402       .  A
C450        C451   1.407       .  A
C450        H454   1.084       .  S
C451       C1476   1.407       .  A
C452       C1475   1.407   1_455  A
C452        H455   1.084       .  S
C456        C476   1.439       .  S
C456        C457   1.399       .  A
C456        C461   1.402       .  A
C457        C458   1.399       .  A
C457        H462   1.085       .  S
C458        C508   1.439       .  S
C458        C459   1.402       .  A
C459        C460   1.407       .  A
C459        H463   1.084       .  S
C460        C461   1.407       .  A
C461        H464   1.084       .  S
C465        C466   1.205       .  T
C467        C468   1.205       .  T
C469        C470   1.205       .  T
C471        C472   1.205       .  T
C473        C474   1.205       .  T
C475        C476   1.205       .  T
C477        C478   1.204       .  T
C479        C480   1.204       .  T
C481        C482   1.205       .  T
C483        C484   1.204       .  T
C485        C486   1.204       .  T
C487        C488   1.204       .  T
C489        C490   1.205       .  T
C491        C492   1.204       .  T
C493        C494   1.205       .  T
C495        C496   1.205       .  T
C497        C498   1.205       .  T
C499        C500   1.204       .  T
C501        C502   1.205       .  T
C503        C504   1.204       .  T
C505        C506   1.205       .  T
C507        C508   1.205       .  T
C509        C510   1.204       .  T
C511        C512   1.204       .  T
O513        C528   1.258       .  A
O513       Al777   1.893   1_554  S
C514        O524   1.259       .  A
C514        O515   1.260       .  A
C514        C761   1.434       .  S
O515       Al773   1.911       .  S
O516        C518   1.259       .  A
O516       Al773   1.898       .  S
Al517       O771   1.911       .  S
Al517       O772   1.898       .  S
Al517       O525   1.893   1_556  S
Al517       O527   1.913   1_556  S
Al517       O526   1.791       .  S
C518        O531   1.260       .  A
C518        C757   1.434       .  S
O519        C529   1.259       .  A
O519       Al521   1.898       .  S
O520        C533   1.258       .  A
O520       Al530   1.893   1_554  S
Al521       O769   1.893       .  S
Al521       O790   1.913       .  S
Al521       O531   1.911       .  S
Al521       O782   1.791       .  S
O522        C529   1.260       .  A
O522       Al786   1.912       .  S
O523        C532   1.260       .  A
O523       Al530   1.914   1_554  S
O524       Al786   1.898       .  S
O525        C532   1.258       .  A
O526       Al777   1.791       .  S
O526       Al530   1.791       .  S
O527        C528   1.260       .  A
C528        C760   1.433       .  S
C529        C763   1.434       .  S
Al530       O778   1.912       .  S
Al530       O780   1.898       .  S
C532        C766   1.433       .  S
C533        O534   1.260       .  A
C533        C768   1.432       .  S
O534       Al777   1.913   1_554  S
O535        C550   1.258       .  A
O535       Al799   1.893   1_554  S
C536        O546   1.259       .  A
C536        O537   1.260       .  A
C536        C749   1.434       .  S
O537       Al795   1.911       .  S
O538        C540   1.259       .  A
O538       Al795   1.898       .  S
Al539       O793   1.911       .  S
Al539       O794   1.898       .  S
Al539       O547   1.893   1_556  S
Al539       O549   1.913   1_556  S
Al539       O804   1.790       .  S
C540        O553   1.260       .  A
C540        C745   1.434       .  S
O541        C551   1.259       .  A
O541       Al543   1.898       .  S
O542        C555   1.258       .  A
O542       Al552   1.893   1_554  S
Al543       O791   1.893       .  S
Al543       O812   1.914       .  S
Al543       O553   1.912       .  S
Al543       O548   1.791       .  S
O544        C551   1.260       .  A
O544       Al808   1.912       .  S
O545        C554   1.260       .  A
O545       Al552   1.914   1_554  S
O546       Al808   1.898       .  S
O547        C554   1.258       .  A
O548       Al795   1.790       .  S
O548       Al808   1.791       .  S
O549        C550   1.260       .  A
C550        C747   1.433       .  S
C551        C751   1.434       .  S
Al552       O800   1.912       .  S
Al552       O802   1.898       .  S
Al552       O804   1.791       .  S
C554        C754   1.433       .  S
C555        O556   1.260       .  A
C555        C755   1.433       .  S
O556       Al799   1.914   1_554  S
C557        C612   1.491       .  S
C557       C1582   1.417   1_455  A
C558        C601   1.490       .  S
C558       C1581   1.417       .  A
C559        C565   1.491       .  S
C559       C1584   1.417       .  A
C560        C592   1.491       .  S
C560       C1583   1.417   1_455  A
C560        C561   1.417       .  A
C561        C583   1.491       .  S
C561        C562   1.417       .  A
C562        C576   1.491       .  S
C563        C748   1.437       .  S
C563        C564   1.399       .  A
C563        C568   1.401       .  A
C564        C565   1.403       .  A
C564        H569   1.084       .  S
C566        C567   1.399       .  A
C566        H570   1.084       .  S
C567        C744   1.437       .  S
C568        H571   1.084       .  S
C572        C765   1.437       .  S
C572        C577   1.399       .  A
C573        C574   1.401       .  A
C573        H578   1.084       .  S
C574        C741   1.437       .  S
C574        C575   1.399       .  A
C575        C576   1.403       .  A
C575        H579   1.084       .  S
C577        H580   1.084       .  S
C581        C753   1.438       .  S
C581        C582   1.399       .  A
C581        C586   1.401       .  A
C582        C583   1.404       .  A
C582        H587   1.084       .  S
C583        C584   1.403       .  A
C584        C585   1.399       .  A
C584        H588   1.084       .  S
C585        C739   1.437       .  S
C585        C586   1.401       .  A
C586        H589   1.084       .  S
C590        C737   1.438       .  S
C590        C591   1.399       .  A
C590       C1619   1.401       .  A
C591       C1616   1.404       .  A
C591        H596   1.084       .  S
C592       C1615   1.404   1_455  A
C592        C593   1.403       .  A
C593        C594   1.399       .  A
C593        H597   1.084       .  S
C594        C759   1.437       .  S
C594        C595   1.401       .  A
C595       C1614   1.401   1_455  A
C595        H598   1.085       .  S
C599        C735   1.437       .  S
C599        C600   1.399       .  A
C599        C604   1.401       .  A
C600        C601   1.404       .  A
C600        H605   1.084       .  S
C601        C602   1.403       .  A
C602        C603   1.399       .  A
C602        H606   1.084       .  S
C603        C767   1.437       .  S
C603        C604   1.401       .  A
C604        H607   1.084       .  S
C608        C733   1.437       .  S
C608        C609   1.401       .  A
C608        C613   1.399       .  A
C609       C1634   1.401   1_455  A
C609        H614   1.084       .  S
C610        C756   1.437       .  S
C610       C1633   1.401       .  A
C610        C611   1.399       .  A
C611       C1636   1.404       .  A
C611        H615   1.084       .  S
C612       C1635   1.404   1_455  A
C612        C613   1.403       .  A
C613        H616   1.084       .  S
O617        C632   1.258       .  A
O617       Al625   1.893       .  S
C618        O628   1.259       .  A
C618        O619   1.260       .  A
C618        C727   1.434       .  S
O619       Al621   1.911       .  S
O620        C622   1.259       .  A
O620       Al621   1.898       .  S
Al621       O629   1.893       .  S
Al621       O631   1.914       .  S
Al621       O630   1.791       .  S
C622        O635   1.260       .  A
C622        C729   1.434       .  S
O623        C633   1.259       .  A
O623       Al625   1.898       .  S
O624        C637   1.258       .  A
O624       Al634   1.893       .  S
Al625       O638   1.914       .  S
Al625       O635   1.912       .  S
Al625       O630   1.791       .  S
O626        C633   1.260       .  A
O626       Al634   1.912       .  S
O627        C636   1.260       .  A
O627       Al634   1.914       .  S
O628       Al634   1.898       .  S
O629        C636   1.258       .  A
O630       Al634   1.791       .  S
O631        C632   1.260       .  A
C632        C742   1.433       .  S
C633        C731   1.434       .  S
C636        C738   1.433       .  S
C637        O638   1.260       .  A
C637        C736   1.432       .  S
O639        C654   1.259       .  A
O639       Al647   1.898       .  S
C640        O650   1.258       .  A
C640        O641   1.260       .  A
C640        C734   1.432       .  S
O641       Al643   1.913       .  S
O642        C644   1.258       .  A
O642       Al643   1.894       .  S
Al643       O651   1.898       .  S
Al643       O653   1.911       .  S
Al643       O652   1.791       .  S
C644        O657   1.260       .  A
C644        C740   1.433       .  S
O645        C655   1.258       .  A
O645       Al647   1.893       .  S
O646        C659   1.259       .  A
O646       Al656   1.898       .  S
Al647       O660   1.912       .  S
Al647       O657   1.914       .  S
Al647       O652   1.791       .  S
O648        C655   1.260       .  A
O648       Al656   1.914       .  S
O649        C658   1.260       .  A
O649       Al656   1.912       .  S
O650       Al656   1.893       .  S
O651        C658   1.259       .  A
O652       Al656   1.791       .  S
O653        C654   1.260       .  A
C654        C721   1.434       .  S
C655        C743   1.433       .  S
C658        C724   1.434       .  S
C659        O660   1.260       .  A
C659        C725   1.434       .  S
C661       C1690   1.422       .  A
C662        C716   1.497       .  S
C662        C663   1.422       .  A
C663        C707   1.497       .  S
C663       C1688   1.422       .  A
C664        C671   1.497       .  S
C664       C1687   1.422   1_455  A
C665        C696   1.496       .  S
C665        C666   1.422   1_455  A
C666       C1713   1.497       .  S
C666       C1685   1.422       .  A
C667        C762   1.439       .  S
C667        C668   1.398       .  A
C667        C672   1.402       .  A
C668        H673   1.085       .  S
C669        C730   1.439       .  S
C669        C670   1.402       .  A
C670        H674   1.084       .  S
C671        C672   1.407       .  A
C672        H675   1.084       .  S
C676        C746   1.439       .  S
C676        C677   1.402       .  A
C677        H682   1.084       .  S
C678        C679   1.407       .  A
C679        C680   1.402       .  A
C679        H683   1.084       .  S
C680        C726   1.439       .  S
C680        C681   1.398       .  A
C681        H684   1.085       .  S
C685        C728   1.439       .  S
C685        C686   1.398       .  A
C685        C690   1.402       .  A
C686       C1711   1.398       .  A
C686        H691   1.085       .  S
C687        C758   1.439       .  S
C687       C1710   1.398   1_455  A
C687        C688   1.402       .  A
C688       C1713   1.407   1_455  A
C688        H692   1.084       .  S
C689       C1690   1.497       .  S
C689       C1712   1.407       .  A
C689        C690   1.407       .  A
C690        H693   1.084       .  S
C694        C722   1.439       .  S
C694        C695   1.402       .  A
C694        C699   1.398       .  A
C695        C696   1.407       .  A
C695        H700   1.084       .  S
C696        C697   1.407       .  A
C697        C698   1.402       .  A
C697        H701   1.084       .  S
C698        C750   1.439       .  S
C698        C699   1.398       .  A
C699        H702   1.085       .  S
C703        C723   1.439       .  S
C703       C1728   1.398   1_455  A
C703        C708   1.402       .  A
C704       C1727   1.398       .  A
C704        C705   1.398       .  A
C704        H709   1.085       .  S
C705        C752   1.439       .  S
C705        C706   1.402       .  A
C706        C707   1.407       .  A
C706        H710   1.084       .  S
C707       C1732   1.407       .  A
C708       C1731   1.407   1_455  A
C708        H711   1.084       .  S
C712        C732   1.439       .  S
C712        C713   1.399       .  A
C712        C717   1.402       .  A
C713        C714   1.399       .  A
C713        H718   1.085       .  S
C714        C764   1.439       .  S
C714        C715   1.402       .  A
C715        C716   1.407       .  A
C715        H719   1.084       .  S
C716        C717   1.407       .  A
C717        H720   1.084       .  S
C721        C722   1.205       .  T
C723        C724   1.205       .  T
C725        C726   1.205       .  T
C727        C728   1.205       .  T
C729        C730   1.205       .  T
C731        C732   1.205       .  T
C733        C734   1.204       .  T
C735        C736   1.204       .  T
C737        C738   1.205       .  T
C739        C740   1.204       .  T
C741        C742   1.204       .  T
C743        C744   1.204       .  T
C745        C746   1.205       .  T
C747        C748   1.204       .  T
C749        C750   1.205       .  T
C751        C752   1.205       .  T
C753        C754   1.205       .  T
C755        C756   1.204       .  T
C757        C758   1.205       .  T
C759        C760   1.204       .  T
C761        C762   1.205       .  T
C763        C764   1.205       .  T
C765        C766   1.204       .  T
C767        C768   1.204       .  T
O769        C784   1.258       .  A
C770        O780   1.259       .  A
C770        O771   1.260       .  A
C770       C1017   1.434       .  S
O772        C774   1.259       .  A
Al773       O781   1.893       .  S
Al773       O783   1.913       .  S
Al773       O782   1.791       .  S
C774        O787   1.260       .  A
C774       C1013   1.434       .  S
O775        C785   1.259       .  A
O775       Al777   1.898       .  S
O776        C789   1.258       .  A
O776       Al786   1.893       .  S
Al777       O787   1.911       .  S
O778        C785   1.260       .  A
O779        C788   1.260       .  A
O779       Al786   1.914       .  S
O781        C788   1.258       .  A
O782       Al786   1.791       .  S
O783        C784   1.260       .  A
C784       C1016   1.433       .  S
C785       C1019   1.434       .  S
C788       C1022   1.433       .  S
C789        O790   1.260       .  A
C789       C1024   1.432       .  S
O791        C806   1.258       .  A
C792        O802   1.259       .  A
C792        O793   1.260       .  A
C792       C1005   1.434       .  S
O794        C796   1.259       .  A
Al795       O803   1.893       .  S
Al795       O805   1.913       .  S
C796        O809   1.260       .  A
C796       C1001   1.434       .  S
O797        C807   1.259       .  A
O797       Al799   1.898       .  S
O798        C811   1.258       .  A
O798       Al808   1.893       .  S
Al799       O809   1.912       .  S
Al799       O804   1.791       .  S
O800        C807   1.260       .  A
O801        C810   1.260       .  A
O801       Al808   1.914       .  S
O803        C810   1.258       .  A
O805        C806   1.260       .  A
C806       C1003   1.433       .  S
C807       C1007   1.434       .  S
C810       C1010   1.433       .  S
C811        O812   1.260       .  A
C811       C1011   1.433       .  S
C813        C868   1.491       .  S
C813       C1838   1.417   1_455  A
C814        C857   1.490       .  S
C814       C1837   1.417       .  A
C815        C821   1.491       .  S
C815       C1840   1.417       .  A
C816        C848   1.491       .  S
C816       C1839   1.417   1_455  A
C816        C817   1.417       .  A
C817        C839   1.491       .  S
C817        C818   1.417       .  A
C818        C832   1.491       .  S
C819       C1004   1.437       .  S
C819        C820   1.399       .  A
C819        C824   1.401       .  A
C820        C821   1.403       .  A
C820        H825   1.084       .  S
C822        C823   1.399       .  A
C822        H826   1.084       .  S
C823       C1000   1.437       .  S
C824        H827   1.084       .  S
C828       C1021   1.437       .  S
C828        C833   1.399       .  A
C829        C830   1.401       .  A
C829        H834   1.084       .  S
C830        C997   1.437       .  S
C830        C831   1.399       .  A
C831        C832   1.403       .  A
C831        H835   1.084       .  S
C833        H836   1.084       .  S
C837       C1009   1.438       .  S
C837        C838   1.399       .  A
C837        C842   1.401       .  A
C838        C839   1.404       .  A
C838        H843   1.084       .  S
C839        C840   1.403       .  A
C840        C841   1.399       .  A
C840        H844   1.084       .  S
C841        C995   1.437       .  S
C841        C842   1.401       .  A
C842        H845   1.084       .  S
C846        C993   1.438       .  S
C846        C847   1.399       .  A
C846       C1875   1.401       .  A
C847       C1872   1.404       .  A
C847        H852   1.084       .  S
C848       C1871   1.404   1_455  A
C848        C849   1.403       .  A
C849        C850   1.399       .  A
C849        H853   1.084       .  S
C850       C1015   1.437       .  S
C850        C851   1.401       .  A
C851       C1870   1.401   1_455  A
C851        H854   1.085       .  S
C855        C991   1.437       .  S
C855        C856   1.399       .  A
C855        C860   1.401       .  A
C856        C857   1.404       .  A
C856        H861   1.084       .  S
C857        C858   1.403       .  A
C858        C859   1.399       .  A
C858        H862   1.084       .  S
C859       C1023   1.437       .  S
C859        C860   1.401       .  A
C860        H863   1.085       .  S
C864        C989   1.437       .  S
C864        C865   1.401       .  A
C864        C869   1.399       .  A
C865       C1890   1.401   1_455  A
C865        H870   1.085       .  S
C866       C1012   1.437       .  S
C866       C1889   1.401       .  A
C866        C867   1.399       .  A
C867       C1892   1.404       .  A
C867        H871   1.084       .  S
C868       C1891   1.404   1_455  A
C868        C869   1.403       .  A
C869        H872   1.084       .  S
O873        C888   1.258       .  A
O873       Al881   1.893       .  S
C874        O884   1.259       .  A
C874        O875   1.260       .  A
C874        C983   1.434       .  S
O875       Al877   1.911       .  S
O876        C878   1.259       .  A
O876       Al877   1.898       .  S
Al877       O885   1.893       .  S
Al877       O887   1.914       .  S
Al877       O886   1.791       .  S
C878        O891   1.260       .  A
C878        C985   1.434       .  S
O879        C889   1.259       .  A
O879       Al881   1.898       .  S
O880        C893   1.258       .  A
O880       Al890   1.893       .  S
Al881       O894   1.914       .  S
Al881       O891   1.912       .  S
Al881       O886   1.791       .  S
O882        C889   1.260       .  A
O882       Al890   1.912       .  S
O883        C892   1.260       .  A
O883       Al890   1.914       .  S
O884       Al890   1.898       .  S
O885        C892   1.258       .  A
O886       Al890   1.791       .  S
O887        C888   1.260       .  A
C888        C998   1.433       .  S
C889        C987   1.434       .  S
C892        C994   1.433       .  S
C893        O894   1.260       .  A
C893        C992   1.432       .  S
O895        C910   1.259       .  A
O895       Al903   1.898       .  S
C896        O906   1.258       .  A
C896        O897   1.260       .  A
C896        C990   1.432       .  S
O897       Al899   1.913       .  S
O898        C900   1.258       .  A
O898       Al899   1.894       .  S
Al899       O907   1.898       .  S
Al899       O909   1.911       .  S
Al899       O908   1.791       .  S
C900        O913   1.260       .  A
C900        C996   1.433       .  S
O901        C911   1.258       .  A
O901       Al903   1.893       .  S
O902        C915   1.259       .  A
O902       Al912   1.898       .  S
Al903       O916   1.912       .  S
Al903       O913   1.914       .  S
Al903       O908   1.791       .  S
O904        C911   1.260       .  A
O904       Al912   1.914       .  S
O905        C914   1.260       .  A
O905       Al912   1.912       .  S
O906       Al912   1.893       .  S
O907        C914   1.259       .  A
O908       Al912   1.791       .  S
O909        C910   1.260       .  A
C910        C977   1.434       .  S
C911        C999   1.433       .  S
C914        C980   1.434       .  S
C915        O916   1.260       .  A
C915        C981   1.434       .  S
C917       C1946   1.422       .  A
C918        C972   1.497       .  S
C918        C919   1.422       .  A
C919        C963   1.497       .  S
C919       C1944   1.422       .  A
C920        C927   1.497       .  S
C920       C1943   1.422   1_455  A
C921        C952   1.496       .  S
C921        C922   1.422   1_455  A
C922       C1969   1.497       .  S
C922       C1941   1.422       .  A
C923       C1018   1.439       .  S
C923        C924   1.398       .  A
C923        C928   1.402       .  A
C924        H929   1.085       .  S
C925        C986   1.439       .  S
C925        C926   1.402       .  A
C926        H930   1.084       .  S
C927        C928   1.407       .  A
C928        H931   1.084       .  S
C932       C1002   1.439       .  S
C932        C933   1.402       .  A
C933        H938   1.084       .  S
C934        C935   1.407       .  A
C935        C936   1.402       .  A
C935        H939   1.084       .  S
C936        C982   1.439       .  S
C936        C937   1.398       .  A
C937        H940   1.085       .  S
C941        C984   1.439       .  S
C941        C942   1.398       .  A
C941        C946   1.402       .  A
C942       C1967   1.398       .  A
C942        H947   1.085       .  S
C943       C1014   1.439       .  S
C943       C1966   1.398   1_455  A
C943        C944   1.402       .  A
C944       C1969   1.407   1_455  A
C944        H948   1.084       .  S
C945       C1946   1.497       .  S
C945       C1968   1.407       .  A
C945        C946   1.407       .  A
C946        H949   1.084       .  S
C950        C978   1.439       .  S
C950        C951   1.402       .  A
C950        C955   1.398       .  A
C951        C952   1.407       .  A
C951        H956   1.084       .  S
C952        C953   1.407       .  A
C953        C954   1.402       .  A
C953        H957   1.084       .  S
C954       C1006   1.439       .  S
C954        C955   1.398       .  A
C955        H958   1.085       .  S
C959        C979   1.439       .  S
C959       C1984   1.399   1_455  A
C959        C964   1.402       .  A
C960       C1983   1.398       .  A
C960        C961   1.398       .  A
C960        H965   1.085       .  S
C961       C1008   1.439       .  S
C961        C962   1.402       .  A
C962        C963   1.407       .  A
C962        H966   1.084       .  S
C963       C1988   1.407       .  A
C964       C1987   1.407   1_455  A
C964        H967   1.084       .  S
C968        C988   1.439       .  S
C968        C969   1.399       .  A
C968        C973   1.402       .  A
C969        C970   1.399       .  A
C969        H974   1.085       .  S
C970       C1020   1.439       .  S
C970        C971   1.402       .  A
C971        C972   1.407       .  A
C971        H975   1.084       .  S
C972        C973   1.407       .  A
C973        H976   1.084       .  S
C977        C978   1.205       .  T
C979        C980   1.205       .  T
C981        C982   1.205       .  T
C983        C984   1.205       .  T
C985        C986   1.205       .  T
C987        C988   1.205       .  T
C989        C990   1.204       .  T
C991        C992   1.204       .  T
C993        C994   1.205       .  T
C995        C996   1.204       .  T
C997        C998   1.204       .  T
C999       C1000   1.204       .  T
C1001      C1002   1.205       .  T
C1003      C1004   1.204       .  T
C1005      C1006   1.205       .  T
C1007      C1008   1.205       .  T
C1009      C1010   1.205       .  T
C1011      C1012   1.204       .  T
C1013      C1014   1.205       .  T
C1015      C1016   1.204       .  T
C1017      C1018   1.205       .  T
C1019      C1020   1.205       .  T
C1021      C1022   1.204       .  T
C1023      C1024   1.204       .  T
O1025      C1040   1.258       .  A
O1025     Al1289   1.893   1_554  S
C1026      O1036   1.259       .  A
C1026      O1027   1.260       .  A
C1026      C1273   1.434       .  S
O1027     Al1285   1.911       .  S
O1028      C1030   1.259       .  A
O1028     Al1285   1.898       .  S
Al1029     O1283   1.911       .  S
Al1029     O1284   1.898       .  S
Al1029     O1037   1.893   1_556  S
Al1029     O1039   1.913   1_556  S
Al1029     O1038   1.791       .  S
C1030      O1043   1.260       .  A
C1030      C1269   1.434       .  S
O1031      C1041   1.259       .  A
O1031     Al1033   1.898       .  S
O1032      C1045   1.258       .  A
O1032     Al1042   1.893   1_554  S
Al1033     O1281   1.893       .  S
Al1033     O1302   1.913       .  S
Al1033     O1043   1.911       .  S
Al1033     O1294   1.791       .  S
O1034      C1041   1.260       .  A
O1034     Al1298   1.912       .  S
O1035      C1044   1.260       .  A
O1035     Al1042   1.914   1_554  S
O1036     Al1298   1.898       .  S
O1037      C1044   1.258       .  A
O1038     Al1289   1.791       .  S
O1038     Al1042   1.791       .  S
O1039      C1040   1.260       .  A
C1040      C1272   1.433       .  S
C1041      C1275   1.434       .  S
Al1042     O1290   1.912       .  S
Al1042     O1292   1.898       .  S
C1044      C1278   1.433       .  S
C1045      O1046   1.260       .  A
C1045      C1280   1.432       .  S
O1046     Al1289   1.913   1_554  S
O1047      C1062   1.258       .  A
O1047     Al1311   1.893   1_554  S
C1048      O1058   1.259       .  A
C1048      O1049   1.260       .  A
C1048      C1261   1.434       .  S
O1049     Al1307   1.911       .  S
O1050      C1052   1.259       .  A
O1050     Al1307   1.898       .  S
Al1051     O1305   1.911       .  S
Al1051     O1306   1.898       .  S
Al1051     O1059   1.893   1_556  S
Al1051     O1061   1.913   1_556  S
Al1051     O1316   1.790       .  S
C1052      O1065   1.260       .  A
C1052      C1257   1.434       .  S
O1053      C1063   1.259       .  A
O1053     Al1055   1.898       .  S
O1054      C1067   1.258       .  A
O1054     Al1064   1.893   1_554  S
Al1055     O1303   1.893       .  S
Al1055     O1324   1.914       .  S
Al1055     O1065   1.912       .  S
Al1055     O1060   1.791       .  S
O1056      C1063   1.260       .  A
O1056     Al1320   1.912       .  S
O1057      C1066   1.260       .  A
O1057     Al1064   1.914   1_554  S
O1058     Al1320   1.898       .  S
O1059      C1066   1.258       .  A
O1060     Al1307   1.790       .  S
O1060     Al1320   1.791       .  S
O1061      C1062   1.260       .  A
C1062      C1259   1.433       .  S
C1063      C1263   1.434       .  S
Al1064     O1312   1.912       .  S
Al1064     O1314   1.898       .  S
Al1064     O1316   1.791       .  S
C1066      C1266   1.433       .  S
C1067      O1068   1.260       .  A
C1067      C1267   1.433       .  S
O1068     Al1311   1.914   1_554  S
C1069      C1124   1.491       .  S
C1069      C1586   1.417       .  A
C1070      C1113   1.490       .  S
C1070      C1583   1.417       .  A
C1071      C1077   1.491       .  S
C1071      C1582   1.417   1_545  A
C1072      C1104   1.491       .  S
C1072      C1073   1.417       .  A
C1073      C1095   1.491       .  S
C1073      C1074   1.417       .  A
C1074      C1088   1.491       .  S
C1074      C1581   1.417   1_545  A
C1075      C1260   1.437       .  S
C1075      C1076   1.399       .  A
C1075      C1080   1.401       .  A
C1076      C1077   1.403       .  A
C1076      H1081   1.084       .  S
C1077      C1590   1.404   1_545  A
C1078      C1589   1.404       .  A
C1078      C1079   1.399       .  A
C1078      H1082   1.084       .  S
C1079      C1256   1.437       .  S
C1079      C1592   1.401       .  A
C1080      C1591   1.401   1_545  A
C1080      H1083   1.084       .  S
C1084      C1277   1.437       .  S
C1084      C1597   1.401       .  A
C1084      C1089   1.399       .  A
C1085      C1596   1.401   1_545  A
C1085      C1086   1.401       .  A
C1085      H1090   1.084       .  S
C1086      C1253   1.437       .  S
C1086      C1087   1.399       .  A
C1087      C1088   1.403       .  A
C1087      H1091   1.084       .  S
C1088      C1601   1.404   1_545  A
C1089      C1600   1.404       .  A
C1089      H1092   1.084       .  S
C1093      C1265   1.438       .  S
C1093      C1094   1.399       .  A
C1093      C1098   1.401       .  A
C1094      C1095   1.404       .  A
C1094      H1099   1.084       .  S
C1095      C1096   1.403       .  A
C1096      C1097   1.399       .  A
C1096      H1100   1.084       .  S
C1097      C1251   1.437       .  S
C1097      C1098   1.401       .  A
C1098      H1101   1.084       .  S
C1102      C1249   1.438       .  S
C1102      C1103   1.399       .  A
C1103      H1108   1.084       .  S
C1104      C1105   1.403       .  A
C1105      C1106   1.399       .  A
C1105      H1109   1.084       .  S
C1106      C1271   1.437       .  S
C1106      C1107   1.401       .  A
C1107      H1110   1.084       .  S
C1111      C1247   1.437       .  S
C1111      C1112   1.399       .  A
C1111      C1116   1.401       .  A
C1112      C1113   1.404       .  A
C1112      H1117   1.084       .  S
C1113      C1114   1.403       .  A
C1114      C1115   1.399       .  A
C1114      H1118   1.084       .  S
C1115      C1279   1.437       .  S
C1115      C1116   1.401       .  A
C1116      H1119   1.085       .  S
C1120      C1245   1.437       .  S
C1120      C1121   1.401       .  A
C1120      C1125   1.399       .  A
C1121      H1126   1.085       .  S
C1122      C1268   1.437       .  S
C1122      C1123   1.399       .  A
C1123      H1127   1.084       .  S
C1124      C1125   1.403       .  A
C1125      H1128   1.084       .  S
O1129      C1144   1.258       .  A
O1129     Al1137   1.893       .  S
C1130      O1140   1.259       .  A
C1130      O1131   1.260       .  A
C1130      C1239   1.434       .  S
O1131     Al1133   1.911       .  S
O1132      C1134   1.259       .  A
O1132     Al1133   1.898       .  S
Al1133     O1141   1.893       .  S
Al1133     O1143   1.914       .  S
Al1133     O1142   1.791       .  S
C1134      O1147   1.260       .  A
C1134      C1241   1.434       .  S
O1135      C1145   1.259       .  A
O1135     Al1137   1.898       .  S
O1136      C1149   1.258       .  A
O1136     Al1146   1.893       .  S
Al1137     O1150   1.914       .  S
Al1137     O1147   1.912       .  S
Al1137     O1142   1.791       .  S
O1138      C1145   1.260       .  A
O1138     Al1146   1.912       .  S
O1139      C1148   1.260       .  A
O1139     Al1146   1.914       .  S
O1140     Al1146   1.898       .  S
O1141      C1148   1.258       .  A
O1142     Al1146   1.791       .  S
O1143      C1144   1.260       .  A
C1144      C1254   1.433       .  S
C1145      C1243   1.434       .  S
C1148      C1250   1.433       .  S
C1149      O1150   1.260       .  A
C1149      C1248   1.432       .  S
O1151      C1166   1.259       .  A
O1151     Al1159   1.898       .  S
C1152      O1162   1.258       .  A
C1152      O1153   1.260       .  A
C1152      C1246   1.432       .  S
O1153     Al1155   1.913       .  S
O1154      C1156   1.258       .  A
O1154     Al1155   1.894       .  S
Al1155     O1163   1.898       .  S
Al1155     O1165   1.911       .  S
Al1155     O1164   1.791       .  S
C1156      O1169   1.260       .  A
C1156      C1252   1.433       .  S
O1157      C1167   1.258       .  A
O1157     Al1159   1.893       .  S
O1158      C1171   1.259       .  A
O1158     Al1168   1.898       .  S
Al1159     O1172   1.912       .  S
Al1159     O1169   1.914       .  S
Al1159     O1164   1.791       .  S
O1160      C1167   1.260       .  A
O1160     Al1168   1.914       .  S
O1161      C1170   1.260       .  A
O1161     Al1168   1.912       .  S
O1162     Al1168   1.893       .  S
O1163      C1170   1.259       .  A
O1164     Al1168   1.791       .  S
O1165      C1166   1.260       .  A
C1166      C1233   1.434       .  S
C1167      C1255   1.433       .  S
C1170      C1236   1.434       .  S
C1171      O1172   1.260       .  A
C1171      C1237   1.434       .  S
C1173      C1702   1.497       .  S
C1173      C1686   1.422       .  A
C1174      C1228   1.497       .  S
C1174      C1685   1.422       .  A
C1174      C1175   1.422       .  A
C1175      C1219   1.497       .  S
C1176      C1183   1.497       .  S
C1176      C1689   1.422       .  A
C1177      C1208   1.496       .  S
C1177      C1688   1.422   1_545  A
C1177      C1178   1.422       .  A
C1179      C1274   1.439       .  S
C1179      C1180   1.398       .  A
C1179      C1184   1.402       .  A
C1180      C1693   1.398       .  A
C1180      H1185   1.085       .  S
C1181      C1242   1.439       .  S
C1181      C1692   1.398   1_545  A
C1181      C1182   1.402       .  A
C1182      C1695   1.407   1_545  A
C1182      H1186   1.084       .  S
C1183      C1694   1.407       .  A
C1183      C1184   1.407       .  A
C1184      H1187   1.084       .  S
C1188      C1258   1.439       .  S
C1188      C1189   1.402       .  A
C1188      C1705   1.398   1_545  A
C1189      C1702   1.407   1_545  A
C1189      H1194   1.084       .  S
C1190      C1685   1.497       .  S
C1190      C1701   1.407       .  A
C1190      C1191   1.407       .  A
C1191      C1192   1.402       .  A
C1191      H1195   1.084       .  S
C1192      C1238   1.439       .  S
C1192      C1193   1.398       .  A
C1193      C1700   1.398       .  A
C1193      H1196   1.085       .  S
C1197      C1240   1.439       .  S
C1197      C1198   1.398       .  A
C1197      C1202   1.402       .  A
C1198      H1203   1.085       .  S
C1199      C1270   1.439       .  S
C1199      C1200   1.402       .  A
C1200      H1204   1.084       .  S
C1201      C1202   1.407       .  A
C1202      H1205   1.084       .  S
C1206      C1234   1.439       .  S
C1206      C1207   1.402       .  A
C1206      C1211   1.398       .  A
C1207      C1208   1.407       .  A
C1207      H1212   1.084       .  S
C1208      C1209   1.407       .  A
C1209      C1210   1.402       .  A
C1209      H1213   1.084       .  S
C1210      C1262   1.439       .  S
C1210      C1211   1.398       .  A
C1211      H1214   1.085       .  S
C1215      C1235   1.439       .  S
C1215      C1220   1.402       .  A
C1216      C1217   1.398       .  A
C1216      H1221   1.085       .  S
C1217      C1264   1.439       .  S
C1217      C1218   1.402       .  A
C1218      C1219   1.407       .  A
C1218      H1222   1.084       .  S
C1220      H1223   1.084       .  S
C1224      C1244   1.439       .  S
C1224      C1225   1.399       .  A
C1224      C1229   1.402       .  A
C1225      C1226   1.399       .  A
C1225      H1230   1.085       .  S
C1226      C1276   1.439       .  S
C1226      C1227   1.402       .  A
C1227      C1228   1.407       .  A
C1227      H1231   1.084       .  S
C1228      C1229   1.407       .  A
C1229      H1232   1.084       .  S
C1233      C1234   1.205       .  T
C1235      C1236   1.205       .  T
C1237      C1238   1.205       .  T
C1239      C1240   1.205       .  T
C1241      C1242   1.205       .  T
C1243      C1244   1.205       .  T
C1245      C1246   1.204       .  T
C1247      C1248   1.204       .  T
C1249      C1250   1.205       .  T
C1251      C1252   1.204       .  T
C1253      C1254   1.204       .  T
C1255      C1256   1.204       .  T
C1257      C1258   1.205       .  T
C1259      C1260   1.204       .  T
C1261      C1262   1.205       .  T
C1263      C1264   1.205       .  T
C1265      C1266   1.205       .  T
C1267      C1268   1.204       .  T
C1269      C1270   1.205       .  T
C1271      C1272   1.204       .  T
C1273      C1274   1.205       .  T
C1275      C1276   1.205       .  T
C1277      C1278   1.204       .  T
C1279      C1280   1.204       .  T
O1281      C1296   1.258       .  A
C1282      O1292   1.259       .  A
C1282      O1283   1.260       .  A
C1282      C1529   1.434       .  S
O1284      C1286   1.259       .  A
Al1285     O1293   1.893       .  S
Al1285     O1295   1.913       .  S
Al1285     O1294   1.791       .  S
C1286      O1299   1.260       .  A
C1286      C1525   1.434       .  S
O1287      C1297   1.259       .  A
O1287     Al1289   1.898       .  S
O1288      C1301   1.258       .  A
O1288     Al1298   1.893       .  S
Al1289     O1299   1.911       .  S
O1290      C1297   1.260       .  A
O1291      C1300   1.260       .  A
O1291     Al1298   1.914       .  S
O1293      C1300   1.258       .  A
O1294     Al1298   1.791       .  S
O1295      C1296   1.260       .  A
C1296      C1528   1.433       .  S
C1297      C1531   1.434       .  S
C1300      C1534   1.433       .  S
C1301      O1302   1.260       .  A
C1301      C1536   1.432       .  S
O1303      C1318   1.258       .  A
C1304      O1314   1.259       .  A
C1304      O1305   1.260       .  A
C1304      C1517   1.434       .  S
O1306      C1308   1.259       .  A
Al1307     O1315   1.893       .  S
Al1307     O1317   1.913       .  S
C1308      O1321   1.260       .  A
C1308      C1513   1.434       .  S
O1309      C1319   1.259       .  A
O1309     Al1311   1.898       .  S
O1310      C1323   1.258       .  A
O1310     Al1320   1.893       .  S
Al1311     O1321   1.912       .  S
Al1311     O1316   1.791       .  S
O1312      C1319   1.260       .  A
O1313      C1322   1.260       .  A
O1313     Al1320   1.914       .  S
O1315      C1322   1.258       .  A
O1317      C1318   1.260       .  A
C1318      C1515   1.433       .  S
C1319      C1519   1.434       .  S
C1322      C1522   1.433       .  S
C1323      O1324   1.260       .  A
C1323      C1523   1.433       .  S
C1325      C1380   1.491       .  S
C1325      C1842   1.417       .  A
C1326      C1369   1.490       .  S
C1326      C1839   1.417       .  A
C1327      C1333   1.491       .  S
C1327      C1838   1.417   1_545  A
C1328      C1360   1.491       .  S
C1328      C1329   1.417       .  A
C1329      C1351   1.491       .  S
C1329      C1330   1.417       .  A
C1330      C1344   1.491       .  S
C1330      C1837   1.417   1_545  A
C1331      C1516   1.437       .  S
C1331      C1332   1.399       .  A
C1331      C1336   1.401       .  A
C1332      C1333   1.403       .  A
C1332      H1337   1.084       .  S
C1333      C1846   1.404   1_545  A
C1334      C1845   1.404       .  A
C1334      C1335   1.399       .  A
C1334      H1338   1.084       .  S
C1335      C1512   1.437       .  S
C1335      C1848   1.401       .  A
C1336      C1847   1.401   1_545  A
C1336      H1339   1.085       .  S
C1340      C1533   1.437       .  S
C1340      C1853   1.401       .  A
C1340      C1345   1.399       .  A
C1341      C1852   1.401   1_545  A
C1341      C1342   1.401       .  A
C1341      H1346   1.084       .  S
C1342      C1509   1.437       .  S
C1342      C1343   1.399       .  A
C1343      C1344   1.403       .  A
C1343      H1347   1.084       .  S
C1344      C1857   1.404   1_545  A
C1345      C1856   1.404       .  A
C1345      H1348   1.084       .  S
C1349      C1521   1.438       .  S
C1349      C1350   1.399       .  A
C1349      C1354   1.401       .  A
C1350      C1351   1.404       .  A
C1350      H1355   1.084       .  S
C1351      C1352   1.403       .  A
C1352      C1353   1.399       .  A
C1352      H1356   1.084       .  S
C1353      C1507   1.437       .  S
C1353      C1354   1.401       .  A
C1354      H1357   1.084       .  S
C1358      C1505   1.438       .  S
C1358      C1359   1.399       .  A
C1359      H1364   1.084       .  S
C1360      C1361   1.403       .  A
C1361      C1362   1.399       .  A
C1361      H1365   1.084       .  S
C1362      C1527   1.437       .  S
C1362      C1363   1.401       .  A
C1363      H1366   1.084       .  S
C1367      C1503   1.437       .  S
C1367      C1368   1.399       .  A
C1367      C1372   1.401       .  A
C1368      C1369   1.404       .  A
C1368      H1373   1.084       .  S
C1369      C1370   1.403       .  A
C1370      C1371   1.399       .  A
C1370      H1374   1.084       .  S
C1371      C1535   1.437       .  S
C1371      C1372   1.401       .  A
C1372      H1375   1.084       .  S
C1376      C1501   1.437       .  S
C1376      C1377   1.401       .  A
C1376      C1381   1.399       .  A
C1377      H1382   1.084       .  S
C1378      C1524   1.437       .  S
C1378      C1379   1.399       .  A
C1379      H1383   1.084       .  S
C1380      C1381   1.403       .  A
C1381      H1384   1.084       .  S
O1385      C1400   1.258       .  A
O1385     Al1393   1.893       .  S
C1386      O1396   1.259       .  A
C1386      O1387   1.260       .  A
C1386      C1495   1.434       .  S
O1387     Al1389   1.911       .  S
O1388      C1390   1.259       .  A
O1388     Al1389   1.898       .  S
Al1389     O1397   1.893       .  S
Al1389     O1399   1.914       .  S
Al1389     O1398   1.791       .  S
C1390      O1403   1.260       .  A
C1390      C1497   1.434       .  S
O1391      C1401   1.259       .  A
O1391     Al1393   1.898       .  S
O1392      C1405   1.258       .  A
O1392     Al1402   1.893       .  S
Al1393     O1406   1.914       .  S
Al1393     O1403   1.912       .  S
Al1393     O1398   1.791       .  S
O1394      C1401   1.260       .  A
O1394     Al1402   1.912       .  S
O1395      C1404   1.260       .  A
O1395     Al1402   1.914       .  S
O1396     Al1402   1.898       .  S
O1397      C1404   1.258       .  A
O1398     Al1402   1.791       .  S
O1399      C1400   1.260       .  A
C1400      C1510   1.433       .  S
C1401      C1499   1.434       .  S
C1404      C1506   1.433       .  S
C1405      O1406   1.260       .  A
C1405      C1504   1.432       .  S
O1407      C1422   1.259       .  A
O1407     Al1415   1.898       .  S
C1408      O1418   1.258       .  A
C1408      O1409   1.260       .  A
C1408      C1502   1.432       .  S
O1409     Al1411   1.913       .  S
O1410      C1412   1.258       .  A
O1410     Al1411   1.894       .  S
Al1411     O1419   1.898       .  S
Al1411     O1421   1.911       .  S
Al1411     O1420   1.791       .  S
C1412      O1425   1.260       .  A
C1412      C1508   1.433       .  S
O1413      C1423   1.258       .  A
O1413     Al1415   1.893       .  S
O1414      C1427   1.259       .  A
O1414     Al1424   1.898       .  S
Al1415     O1428   1.912       .  S
Al1415     O1425   1.914       .  S
Al1415     O1420   1.791       .  S
O1416      C1423   1.260       .  A
O1416     Al1424   1.914       .  S
O1417      C1426   1.260       .  A
O1417     Al1424   1.912       .  S
O1418     Al1424   1.893       .  S
O1419      C1426   1.259       .  A
O1420     Al1424   1.791       .  S
O1421      C1422   1.260       .  A
C1422      C1489   1.434       .  S
C1423      C1511   1.433       .  S
C1426      C1492   1.434       .  S
C1427      O1428   1.260       .  A
C1427      C1493   1.434       .  S
C1429      C1958   1.497       .  S
C1429      C1942   1.422       .  A
C1430      C1484   1.497       .  S
C1430      C1941   1.422       .  A
C1430      C1431   1.422       .  A
C1431      C1475   1.497       .  S
C1432      C1439   1.497       .  S
C1432      C1945   1.422       .  A
C1433      C1464   1.496       .  S
C1433      C1944   1.422   1_545  A
C1433      C1434   1.422       .  A
C1435      C1530   1.439       .  S
C1435      C1436   1.398       .  A
C1435      C1440   1.402       .  A
C1436      C1949   1.398       .  A
C1436      H1441   1.085       .  S
C1437      C1498   1.439       .  S
C1437      C1948   1.398   1_545  A
C1437      C1438   1.402       .  A
C1438      C1951   1.407   1_545  A
C1438      H1442   1.084       .  S
C1439      C1950   1.407       .  A
C1439      C1440   1.407       .  A
C1440      H1443   1.084       .  S
C1444      C1514   1.439       .  S
C1444      C1445   1.402       .  A
C1444      C1961   1.398   1_545  A
C1445      C1958   1.407   1_545  A
C1445      H1450   1.084       .  S
C1446      C1941   1.497       .  S
C1446      C1957   1.407       .  A
C1446      C1447   1.407       .  A
C1447      C1448   1.402       .  A
C1447      H1451   1.084       .  S
C1448      C1494   1.439       .  S
C1448      C1449   1.398       .  A
C1449      C1956   1.398       .  A
C1449      H1452   1.085       .  S
C1453      C1496   1.439       .  S
C1453      C1454   1.398       .  A
C1453      C1458   1.402       .  A
C1454      H1459   1.085       .  S
C1455      C1526   1.439       .  S
C1455      C1456   1.402       .  A
C1456      H1460   1.084       .  S
C1457      C1458   1.407       .  A
C1458      H1461   1.084       .  S
C1462      C1490   1.439       .  S
C1462      C1463   1.402       .  A
C1462      C1467   1.398       .  A
C1463      C1464   1.407       .  A
C1463      H1468   1.084       .  S
C1464      C1465   1.407       .  A
C1465      C1466   1.402       .  A
C1465      H1469   1.084       .  S
C1466      C1518   1.439       .  S
C1466      C1467   1.398       .  A
C1467      H1470   1.085       .  S
C1471      C1491   1.439       .  S
C1471      C1476   1.402       .  A
C1472      C1473   1.398       .  A
C1472      H1477   1.085       .  S
C1473      C1520   1.439       .  S
C1473      C1474   1.402       .  A
C1474      C1475   1.407       .  A
C1474      H1478   1.084       .  S
C1476      H1479   1.084       .  S
C1480      C1500   1.439       .  S
C1480      C1481   1.399       .  A
C1480      C1485   1.402       .  A
C1481      C1482   1.399       .  A
C1481      H1486   1.085       .  S
C1482      C1532   1.439       .  S
C1482      C1483   1.402       .  A
C1483      C1484   1.407       .  A
C1483      H1487   1.084       .  S
C1484      C1485   1.407       .  A
C1485      H1488   1.084       .  S
C1489      C1490   1.205       .  T
C1491      C1492   1.205       .  T
C1493      C1494   1.205       .  T
C1495      C1496   1.205       .  T
C1497      C1498   1.205       .  T
C1499      C1500   1.205       .  T
C1501      C1502   1.204       .  T
C1503      C1504   1.204       .  T
C1505      C1506   1.205       .  T
C1507      C1508   1.204       .  T
C1509      C1510   1.204       .  T
C1511      C1512   1.204       .  T
C1513      C1514   1.205       .  T
C1515      C1516   1.204       .  T
C1517      C1518   1.205       .  T
C1519      C1520   1.205       .  T
C1521      C1522   1.205       .  T
C1523      C1524   1.204       .  T
C1525      C1526   1.205       .  T
C1527      C1528   1.204       .  T
C1529      C1530   1.205       .  T
C1531      C1532   1.205       .  T
C1533      C1534   1.204       .  T
C1535      C1536   1.204       .  T
O1537      C1552   1.258       .  A
O1537     Al1801   1.893   1_554  S
C1538      O1548   1.259       .  A
C1538      O1539   1.260       .  A
C1538      C1785   1.434       .  S
O1539     Al1797   1.911       .  S
O1540      C1542   1.259       .  A
O1540     Al1797   1.898       .  S
Al1541     O1795   1.911       .  S
Al1541     O1796   1.898       .  S
Al1541     O1549   1.893   1_556  S
Al1541     O1551   1.913   1_556  S
Al1541     O1550   1.791       .  S
C1542      O1555   1.260       .  A
C1542      C1781   1.434       .  S
O1543      C1553   1.259       .  A
O1543     Al1545   1.898       .  S
O1544      C1557   1.258       .  A
O1544     Al1554   1.893   1_554  S
Al1545     O1793   1.893       .  S
Al1545     O1814   1.913       .  S
Al1545     O1555   1.911       .  S
Al1545     O1806   1.791       .  S
O1546      C1553   1.260       .  A
O1546     Al1810   1.912       .  S
O1547      C1556   1.260       .  A
O1547     Al1554   1.914   1_554  S
O1548     Al1810   1.898       .  S
O1549      C1556   1.258       .  A
O1550     Al1801   1.791       .  S
O1550     Al1554   1.791       .  S
O1551      C1552   1.260       .  A
C1552      C1784   1.433       .  S
C1553      C1787   1.434       .  S
Al1554     O1802   1.912       .  S
Al1554     O1804   1.898       .  S
C1556      C1790   1.433       .  S
C1557      O1558   1.260       .  A
C1557      C1792   1.432       .  S
O1558     Al1801   1.913   1_554  S
O1559      C1574   1.258       .  A
O1559     Al1823   1.893   1_554  S
C1560      O1570   1.259       .  A
C1560      O1561   1.260       .  A
C1560      C1773   1.434       .  S
O1561     Al1819   1.911       .  S
O1562      C1564   1.259       .  A
O1562     Al1819   1.898       .  S
Al1563     O1817   1.911       .  S
Al1563     O1818   1.898       .  S
Al1563     O1571   1.893   1_556  S
Al1563     O1573   1.913   1_556  S
Al1563     O1828   1.790       .  S
C1564      O1577   1.260       .  A
C1564      C1769   1.434       .  S
O1565      C1575   1.259       .  A
O1565     Al1567   1.898       .  S
O1566      C1579   1.258       .  A
O1566     Al1576   1.893   1_554  S
Al1567     O1815   1.893       .  S
Al1567     O1836   1.914       .  S
Al1567     O1577   1.912       .  S
Al1567     O1572   1.791       .  S
O1568      C1575   1.260       .  A
O1568     Al1832   1.912       .  S
O1569      C1578   1.260       .  A
O1569     Al1576   1.914   1_554  S
O1570     Al1832   1.898       .  S
O1571      C1578   1.258       .  A
O1572     Al1819   1.790       .  S
O1572     Al1832   1.791       .  S
O1573      C1574   1.260       .  A
C1574      C1771   1.433       .  S
C1575      C1775   1.434       .  S
Al1576     O1824   1.912       .  S
Al1576     O1826   1.898       .  S
Al1576     O1828   1.791       .  S
C1578      C1778   1.433       .  S
C1579      O1580   1.260       .  A
C1579      C1779   1.433       .  S
O1580     Al1823   1.914   1_554  S
C1581      C1636   1.491       .  S
C1582      C1625   1.490       .  S
C1583      C1589   1.491       .  S
C1584      C1616   1.491       .  S
C1584      C1585   1.417       .  A
C1585      C1607   1.491       .  S
C1585      C1586   1.417       .  A
C1586      C1600   1.491       .  S
C1587      C1772   1.437       .  S
C1587      C1588   1.399       .  A
C1587      C1592   1.401       .  A
C1588      C1589   1.403       .  A
C1588      H1593   1.084       .  S
C1590      C1591   1.399       .  A
C1590      H1594   1.084       .  S
C1591      C1768   1.437       .  S
C1592      H1595   1.084       .  S
C1596      C1789   1.437       .  S
C1596      C1601   1.399       .  A
C1597      C1598   1.401       .  A
C1597      H1602   1.085       .  S
C1598      C1765   1.437       .  S
C1598      C1599   1.399       .  A
C1599      C1600   1.403       .  A
C1599      H1603   1.084       .  S
C1601      H1604   1.084       .  S
C1605      C1777   1.438       .  S
C1605      C1606   1.399       .  A
C1605      C1610   1.401       .  A
C1606      C1607   1.404       .  A
C1606      H1611   1.084       .  S
C1607      C1608   1.403       .  A
C1608      C1609   1.399       .  A
C1608      H1612   1.084       .  S
C1609      C1763   1.437       .  S
C1609      C1610   1.401       .  A
C1610      H1613   1.084       .  S
C1614      C1761   1.438       .  S
C1614      C1615   1.399       .  A
C1615      H1620   1.084       .  S
C1616      C1617   1.403       .  A
C1617      C1618   1.399       .  A
C1617      H1621   1.084       .  S
C1618      C1783   1.437       .  S
C1618      C1619   1.401       .  A
C1619      H1622   1.085       .  S
C1623      C1759   1.437       .  S
C1623      C1624   1.399       .  A
C1623      C1628   1.401       .  A
C1624      C1625   1.404       .  A
C1624      H1629   1.084       .  S
C1625      C1626   1.403       .  A
C1626      C1627   1.399       .  A
C1626      H1630   1.084       .  S
C1627      C1791   1.437       .  S
C1627      C1628   1.401       .  A
C1628      H1631   1.084       .  S
C1632      C1757   1.437       .  S
C1632      C1633   1.401       .  A
C1632      C1637   1.399       .  A
C1633      H1638   1.085       .  S
C1634      C1780   1.437       .  S
C1634      C1635   1.399       .  A
C1635      H1639   1.084       .  S
C1636      C1637   1.403       .  A
C1637      H1640   1.084       .  S
O1641      C1656   1.258       .  A
O1641     Al1649   1.893       .  S
C1642      O1652   1.259       .  A
C1642      O1643   1.260       .  A
C1642      C1751   1.434       .  S
O1643     Al1645   1.911       .  S
O1644      C1646   1.259       .  A
O1644     Al1645   1.898       .  S
Al1645     O1653   1.893       .  S
Al1645     O1655   1.914       .  S
Al1645     O1654   1.791       .  S
C1646      O1659   1.260       .  A
C1646      C1753   1.434       .  S
O1647      C1657   1.259       .  A
O1647     Al1649   1.898       .  S
O1648      C1661   1.258       .  A
O1648     Al1658   1.893       .  S
Al1649     O1662   1.914       .  S
Al1649     O1659   1.912       .  S
Al1649     O1654   1.791       .  S
O1650      C1657   1.260       .  A
O1650     Al1658   1.912       .  S
O1651      C1660   1.260       .  A
O1651     Al1658   1.914       .  S
O1652     Al1658   1.898       .  S
O1653      C1660   1.258       .  A
O1654     Al1658   1.791       .  S
O1655      C1656   1.260       .  A
C1656      C1766   1.433       .  S
C1657      C1755   1.434       .  S
C1660      C1762   1.433       .  S
C1661      O1662   1.260       .  A
C1661      C1760   1.432       .  S
O1663      C1678   1.259       .  A
O1663     Al1671   1.898       .  S
C1664      O1674   1.258       .  A
C1664      O1665   1.260       .  A
C1664      C1758   1.432       .  S
O1665     Al1667   1.913       .  S
O1666      C1668   1.258       .  A
O1666     Al1667   1.894       .  S
Al1667     O1675   1.898       .  S
Al1667     O1677   1.911       .  S
Al1667     O1676   1.791       .  S
C1668      O1681   1.260       .  A
C1668      C1764   1.433       .  S
O1669      C1679   1.258       .  A
O1669     Al1671   1.893       .  S
O1670      C1683   1.259       .  A
O1670     Al1680   1.898       .  S
Al1671     O1684   1.912       .  S
Al1671     O1681   1.914       .  S
Al1671     O1676   1.791       .  S
O1672      C1679   1.260       .  A
O1672     Al1680   1.914       .  S
O1673      C1682   1.260       .  A
O1673     Al1680   1.912       .  S
O1674     Al1680   1.893       .  S
O1675      C1682   1.259       .  A
O1676     Al1680   1.791       .  S
O1677      C1678   1.260       .  A
C1678      C1745   1.434       .  S
C1679      C1767   1.433       .  S
C1682      C1748   1.434       .  S
C1683      O1684   1.260       .  A
C1683      C1749   1.434       .  S
C1686      C1740   1.497       .  S
C1686      C1687   1.422       .  A
C1687      C1731   1.497       .  S
C1688      C1695   1.497       .  S
C1689      C1720   1.496       .  S
C1689      C1690   1.422       .  A
C1691      C1786   1.439       .  S
C1691      C1692   1.398       .  A
C1691      C1696   1.402       .  A
C1692      H1697   1.085       .  S
C1693      C1754   1.439       .  S
C1693      C1694   1.402       .  A
C1694      H1698   1.084       .  S
C1695      C1696   1.407       .  A
C1696      H1699   1.084       .  S
C1700      C1770   1.439       .  S
C1700      C1701   1.402       .  A
C1701      H1706   1.084       .  S
C1702      C1703   1.407       .  A
C1703      C1704   1.402       .  A
C1703      H1707   1.084       .  S
C1704      C1750   1.439       .  S
C1704      C1705   1.398       .  A
C1705      H1708   1.085       .  S
C1709      C1752   1.439       .  S
C1709      C1710   1.398       .  A
C1709      C1714   1.402       .  A
C1710      H1715   1.085       .  S
C1711      C1782   1.439       .  S
C1711      C1712   1.402       .  A
C1712      H1716   1.084       .  S
C1713      C1714   1.407       .  A
C1714      H1717   1.084       .  S
C1718      C1746   1.439       .  S
C1718      C1719   1.402       .  A
C1718      C1723   1.398       .  A
C1719      C1720   1.407       .  A
C1719      H1724   1.084       .  S
C1720      C1721   1.407       .  A
C1721      C1722   1.402       .  A
C1721      H1725   1.084       .  S
C1722      C1774   1.439       .  S
C1722      C1723   1.398       .  A
C1723      H1726   1.085       .  S
C1727      C1747   1.439       .  S
C1727      C1732   1.402       .  A
C1728      C1729   1.398       .  A
C1728      H1733   1.085       .  S
C1729      C1776   1.439       .  S
C1729      C1730   1.402       .  A
C1730      C1731   1.407       .  A
C1730      H1734   1.084       .  S
C1732      H1735   1.084       .  S
C1736      C1756   1.439       .  S
C1736      C1737   1.399       .  A
C1736      C1741   1.402       .  A
C1737      C1738   1.399       .  A
C1737      H1742   1.085       .  S
C1738      C1788   1.439       .  S
C1738      C1739   1.402       .  A
C1739      C1740   1.407       .  A
C1739      H1743   1.084       .  S
C1740      C1741   1.407       .  A
C1741      H1744   1.084       .  S
C1745      C1746   1.205       .  T
C1747      C1748   1.205       .  T
C1749      C1750   1.205       .  T
C1751      C1752   1.205       .  T
C1753      C1754   1.205       .  T
C1755      C1756   1.205       .  T
C1757      C1758   1.204       .  T
C1759      C1760   1.204       .  T
C1761      C1762   1.205       .  T
C1763      C1764   1.204       .  T
C1765      C1766   1.204       .  T
C1767      C1768   1.204       .  T
C1769      C1770   1.205       .  T
C1771      C1772   1.204       .  T
C1773      C1774   1.205       .  T
C1775      C1776   1.205       .  T
C1777      C1778   1.205       .  T
C1779      C1780   1.204       .  T
C1781      C1782   1.205       .  T
C1783      C1784   1.204       .  T
C1785      C1786   1.205       .  T
C1787      C1788   1.205       .  T
C1789      C1790   1.204       .  T
C1791      C1792   1.204       .  T
O1793      C1808   1.258       .  A
C1794      O1804   1.259       .  A
C1794      O1795   1.260       .  A
C1794      C2041   1.434       .  S
O1796      C1798   1.259       .  A
Al1797     O1805   1.893       .  S
Al1797     O1807   1.913       .  S
Al1797     O1806   1.791       .  S
C1798      O1811   1.260       .  A
C1798      C2037   1.434       .  S
O1799      C1809   1.259       .  A
O1799     Al1801   1.898       .  S
O1800      C1813   1.258       .  A
O1800     Al1810   1.893       .  S
Al1801     O1811   1.911       .  S
O1802      C1809   1.260       .  A
O1803      C1812   1.260       .  A
O1803     Al1810   1.914       .  S
O1805      C1812   1.258       .  A
O1806     Al1810   1.791       .  S
O1807      C1808   1.260       .  A
C1808      C2040   1.433       .  S
C1809      C2043   1.434       .  S
C1812      C2046   1.433       .  S
C1813      O1814   1.260       .  A
C1813      C2048   1.432       .  S
O1815      C1830   1.258       .  A
C1816      O1826   1.259       .  A
C1816      O1817   1.260       .  A
C1816      C2029   1.434       .  S
O1818      C1820   1.259       .  A
Al1819     O1827   1.893       .  S
Al1819     O1829   1.913       .  S
C1820      O1833   1.260       .  A
C1820      C2025   1.434       .  S
O1821      C1831   1.259       .  A
O1821     Al1823   1.898       .  S
O1822      C1835   1.258       .  A
O1822     Al1832   1.893       .  S
Al1823     O1833   1.912       .  S
Al1823     O1828   1.791       .  S
O1824      C1831   1.260       .  A
O1825      C1834   1.260       .  A
O1825     Al1832   1.914       .  S
O1827      C1834   1.258       .  A
O1829      C1830   1.260       .  A
C1830      C2027   1.433       .  S
C1831      C2031   1.434       .  S
C1834      C2034   1.433       .  S
C1835      O1836   1.260       .  A
C1835      C2035   1.433       .  S
C1837      C1892   1.491       .  S
C1838      C1881   1.490       .  S
C1839      C1845   1.491       .  S
C1840      C1872   1.491       .  S
C1840      C1841   1.417       .  A
C1841      C1863   1.491       .  S
C1841      C1842   1.417       .  A
C1842      C1856   1.491       .  S
C1843      C2028   1.437       .  S
C1843      C1844   1.399       .  A
C1843      C1848   1.401       .  A
C1844      C1845   1.403       .  A
C1844      H1849   1.084       .  S
C1846      C1847   1.399       .  A
C1846      H1850   1.084       .  S
C1847      C2024   1.437       .  S
C1848      H1851   1.084       .  S
C1852      C2045   1.437       .  S
C1852      C1857   1.399       .  A
C1853      C1854   1.401       .  A
C1853      H1858   1.084       .  S
C1854      C2021   1.437       .  S
C1854      C1855   1.399       .  A
C1855      C1856   1.403       .  A
C1855      H1859   1.084       .  S
C1857      H1860   1.084       .  S
C1861      C2033   1.438       .  S
C1861      C1862   1.399       .  A
C1861      C1866   1.401       .  A
C1862      C1863   1.404       .  A
C1862      H1867   1.084       .  S
C1863      C1864   1.403       .  A
C1864      C1865   1.399       .  A
C1864      H1868   1.084       .  S
C1865      C2019   1.437       .  S
C1865      C1866   1.401       .  A
C1866      H1869   1.084       .  S
C1870      C2017   1.438       .  S
C1870      C1871   1.399       .  A
C1871      H1876   1.084       .  S
C1872      C1873   1.403       .  A
C1873      C1874   1.399       .  A
C1873      H1877   1.084       .  S
C1874      C2039   1.437       .  S
C1874      C1875   1.401       .  A
C1875      H1878   1.084       .  S
C1879      C2015   1.437       .  S
C1879      C1880   1.399       .  A
C1879      C1884   1.401       .  A
C1880      C1881   1.404       .  A
C1880      H1885   1.084       .  S
C1881      C1882   1.403       .  A
C1882      C1883   1.399       .  A
C1882      H1886   1.084       .  S
C1883      C2047   1.437       .  S
C1883      C1884   1.401       .  A
C1884      H1887   1.085       .  S
C1888      C2013   1.437       .  S
C1888      C1889   1.401       .  A
C1888      C1893   1.399       .  A
C1889      H1894   1.085       .  S
C1890      C2036   1.437       .  S
C1890      C1891   1.399       .  A
C1891      H1895   1.084       .  S
C1892      C1893   1.403       .  A
C1893      H1896   1.084       .  S
O1897      C1912   1.258       .  A
O1897     Al1905   1.893       .  S
C1898      O1908   1.259       .  A
C1898      O1899   1.260       .  A
C1898      C2007   1.434       .  S
O1899     Al1901   1.911       .  S
O1900      C1902   1.259       .  A
O1900     Al1901   1.898       .  S
Al1901     O1909   1.893       .  S
Al1901     O1911   1.914       .  S
Al1901     O1910   1.791       .  S
C1902      O1915   1.260       .  A
C1902      C2009   1.434       .  S
O1903      C1913   1.259       .  A
O1903     Al1905   1.898       .  S
O1904      C1917   1.258       .  A
O1904     Al1914   1.893       .  S
Al1905     O1918   1.914       .  S
Al1905     O1915   1.912       .  S
Al1905     O1910   1.791       .  S
O1906      C1913   1.260       .  A
O1906     Al1914   1.912       .  S
O1907      C1916   1.260       .  A
O1907     Al1914   1.914       .  S
O1908     Al1914   1.898       .  S
O1909      C1916   1.258       .  A
O1910     Al1914   1.791       .  S
O1911      C1912   1.260       .  A
C1912      C2022   1.433       .  S
C1913      C2011   1.434       .  S
C1916      C2018   1.433       .  S
C1917      O1918   1.260       .  A
C1917      C2016   1.432       .  S
O1919      C1934   1.259       .  A
O1919     Al1927   1.898       .  S
C1920      O1930   1.258       .  A
C1920      O1921   1.260       .  A
C1920      C2014   1.432       .  S
O1921     Al1923   1.913       .  S
O1922      C1924   1.258       .  A
O1922     Al1923   1.894       .  S
Al1923     O1931   1.898       .  S
Al1923     O1933   1.911       .  S
Al1923     O1932   1.791       .  S
C1924      O1937   1.260       .  A
C1924      C2020   1.433       .  S
O1925      C1935   1.258       .  A
O1925     Al1927   1.893       .  S
O1926      C1939   1.259       .  A
O1926     Al1936   1.898       .  S
Al1927     O1940   1.912       .  S
Al1927     O1937   1.914       .  S
Al1927     O1932   1.791       .  S
O1928      C1935   1.260       .  A
O1928     Al1936   1.914       .  S
O1929      C1938   1.260       .  A
O1929     Al1936   1.912       .  S
O1930     Al1936   1.893       .  S
O1931      C1938   1.259       .  A
O1932     Al1936   1.791       .  S
O1933      C1934   1.260       .  A
C1934      C2001   1.434       .  S
C1935      C2023   1.433       .  S
C1938      C2004   1.434       .  S
C1939      O1940   1.260       .  A
C1939      C2005   1.434       .  S
C1942      C1996   1.497       .  S
C1942      C1943   1.422       .  A
C1943      C1987   1.497       .  S
C1944      C1951   1.497       .  S
C1945      C1976   1.496       .  S
C1945      C1946   1.422       .  A
C1947      C2042   1.439       .  S
C1947      C1948   1.398       .  A
C1947      C1952   1.402       .  A
C1948      H1953   1.085       .  S
C1949      C2010   1.439       .  S
C1949      C1950   1.402       .  A
C1950      H1954   1.084       .  S
C1951      C1952   1.407       .  A
C1952      H1955   1.084       .  S
C1956      C2026   1.439       .  S
C1956      C1957   1.402       .  A
C1957      H1962   1.084       .  S
C1958      C1959   1.407       .  A
C1959      C1960   1.402       .  A
C1959      H1963   1.084       .  S
C1960      C2006   1.439       .  S
C1960      C1961   1.398       .  A
C1961      H1964   1.085       .  S
C1965      C2008   1.439       .  S
C1965      C1966   1.398       .  A
C1965      C1970   1.402       .  A
C1966      H1971   1.085       .  S
C1967      C2038   1.439       .  S
C1967      C1968   1.402       .  A
C1968      H1972   1.084       .  S
C1969      C1970   1.407       .  A
C1970      H1973   1.084       .  S
C1974      C2002   1.439       .  S
C1974      C1975   1.402       .  A
C1974      C1979   1.398       .  A
C1975      C1976   1.407       .  A
C1975      H1980   1.084       .  S
C1976      C1977   1.407       .  A
C1977      C1978   1.402       .  A
C1977      H1981   1.084       .  S
C1978      C2030   1.439       .  S
C1978      C1979   1.398       .  A
C1979      H1982   1.085       .  S
C1983      C2003   1.439       .  S
C1983      C1988   1.402       .  A
C1984      C1985   1.398       .  A
C1984      H1989   1.085       .  S
C1985      C2032   1.439       .  S
C1985      C1986   1.402       .  A
C1986      C1987   1.407       .  A
C1986      H1990   1.084       .  S
C1988      H1991   1.084       .  S
C1992      C2012   1.439       .  S
C1992      C1993   1.399       .  A
C1992      C1997   1.402       .  A
C1993      C1994   1.399       .  A
C1993      H1998   1.085       .  S
C1994      C2044   1.439       .  S
C1994      C1995   1.402       .  A
C1995      C1996   1.407       .  A
C1995      H1999   1.084       .  S
C1996      C1997   1.407       .  A
C1997      H2000   1.084       .  S
C2001      C2002   1.205       .  T
C2003      C2004   1.205       .  T
C2005      C2006   1.205       .  T
C2007      C2008   1.205       .  T
C2009      C2010   1.205       .  T
C2011      C2012   1.205       .  T
C2013      C2014   1.204       .  T
C2015      C2016   1.204       .  T
C2017      C2018   1.205       .  T
C2019      C2020   1.204       .  T
C2021      C2022   1.204       .  T
C2023      C2024   1.204       .  T
C2025      C2026   1.205       .  T
C2027      C2028   1.204       .  T
C2029      C2030   1.205       .  T
C2031      C2032   1.205       .  T
C2033      C2034   1.205       .  T
C2035      C2036   1.204       .  T
C2037      C2038   1.205       .  T
C2039      C2040   1.204       .  T
C2041      C2042   1.205       .  T
C2043      C2044   1.205       .  T
C2045      C2046   1.204       .  T
C2047      C2048   1.204       .  T
