geometry optimzed in LAMMPS
_audit_creation_date              2020-11-30 
_audit_creation_method            'lammps2cif' 
_symmetry_space_group_name_H-M    'P1' 
_symmetry_Int_Tables_number       1 
_symmetry_cell_setting            triclinic 
loop_ 
_symmetry_equiv_pos_as_xyz 
  x,y,z 
_cell_length_a                    26.6888983 
_cell_length_b                    46.06095368356067 
_cell_length_c                    27.643279446497413 
_cell_angle_alpha                 89.9316545972714 
_cell_angle_beta                  90.06540968897323 
_cell_angle_gamma                 89.89940400224896 
loop_ 
_atom_site_label 
_atom_site_type_symbol 
_atom_site_fract_x 
_atom_site_fract_y 
_atom_site_fract_z 
_atom_site_charge 
N1          N  0.07421724  0.34491786  0.18418765    -0.25100
N2          N  0.09901795  0.32004522  0.18181983    -0.33000
C3          C  0.14847743  0.32547301  0.18284496     0.03200
C4          C  0.15504994  0.35507848  0.18592070     0.09300
C5          C  0.10742779  0.36686500  0.18682955    -0.03800
H6          H  0.17744440  0.30901393  0.18199007     0.09900
H7          H  0.09758187  0.38959065  0.18979725     0.11100
Cu8        Cu  0.06556617  0.27953148  0.17768043     0.44200
Cu9        Cu  0.99638423  0.34769900  0.18448555     0.42000
Cu10       Cu  0.93145932  0.27832935  0.17626457     0.43900
N11         N  0.02444790  0.24162423  0.17045682    -0.32500
N12         N  0.97492081  0.24120990  0.16985215    -0.26700
C13         C  0.95929960  0.21383768  0.16216810    -0.02800
C14         C  0.00106065  0.19630551  0.15795666     0.09400
C15         C  0.04174604  0.21451307  0.16317829     0.03200
H16         H  0.92051967  0.20738583  0.15847639     0.10800
H17         H  0.08093605  0.20869962  0.16040382     0.09900
N18         N  0.89551626  0.31814515  0.18065509    -0.33900
N19         N  0.91878452  0.34344032  0.18360670    -0.26100
C20         C  0.88425750  0.36474793  0.18628695    -0.01400
C21         C  0.83739688  0.35210538  0.18478302     0.07300
C22         C  0.84574764  0.32265519  0.18133266     0.05300
H23         H  0.89270179  0.38762690  0.18961544     0.10500
H24         H  0.81779574  0.30568591  0.17995053     0.09300
C25         C  0.49689532  0.40979770  0.30510136     0.32200
C26         C  0.49781936  0.45339049  0.23828551     0.32200
C27         C  0.45163626  0.41104144  0.27121580    -0.04000
C28         C  0.49868658  0.44062377  0.32593470    -0.04800
C29         C  0.54105107  0.40956466  0.26994625    -0.04700
C30         C  0.45181270  0.43331044  0.23706673    -0.04000
C31         C  0.49916301  0.46297608  0.29182401    -0.04800
C32         C  0.54181124  0.43183179  0.23584046    -0.04700
C33         C  0.40745324  0.43133915  0.21159563    -0.30100
N34         N  0.38111315  0.40857133  0.22957131     0.16500
C35         C  0.40753260  0.39601603  0.26589202    -0.30100
H36         H  0.39507046  0.37773822  0.28736915     0.18400
C37         C  0.50112516  0.48866993  0.31730130    -0.29000
N38         N  0.50180933  0.48259504  0.36551383     0.15200
C39         C  0.50034251  0.45320611  0.37111524    -0.29000
C40         C  0.58554908  0.42881183  0.20978093    -0.29300
N41         N  0.61060700  0.40539190  0.22732123     0.15700
H42         H  0.59886422  0.44297364  0.18129960     0.18300
C43         C  0.58401575  0.39347096  0.26400271    -0.29300
H44         H  0.59585297  0.37506652  0.28559797     0.18300
H45         H  0.50053544  0.44166473  0.40518028     0.18300
H46         H  0.39484129  0.44562135  0.18291850     0.18400
H47         H  0.50201318  0.51029514  0.30197231     0.18300
N48         N  0.92723878  0.63134832  0.43490706    -0.25100
N49         N  0.90233631  0.65622359  0.43429345    -0.33000
C50         C  0.85291834  0.65070749  0.43579611     0.03200
C51         C  0.84650860  0.62103831  0.43735497     0.09300
C52         C  0.89416954  0.60930914  0.43686313    -0.03800
H53         H  0.82388362  0.66713198  0.43626269     0.09900
H54         H  0.90415213  0.58654927  0.43845012     0.11100
Cu55       Cu  0.93578526  0.69679059  0.43169979     0.44200
Cu56       Cu  0.00502301  0.62868719  0.43410128     0.42000
Cu57       Cu  0.07026258  0.69799246  0.43001041     0.43900
N58         N  0.97705380  0.73467959  0.42489018    -0.32500
N59         N  0.02658742  0.73510370  0.42419464    -0.26700
C60         C  0.04213852  0.76246886  0.41622373    -0.02800
C61         C  0.00034568  0.77998253  0.41191635     0.09400
C62         C  0.95970846  0.76177187  0.41738768     0.03200
H63         H  0.08088129  0.76889991  0.41214293     0.10800
H64         H  0.92050915  0.76754129  0.41437397     0.09900
N65         N  0.10607212  0.65804615  0.43251292    -0.33900
N66         N  0.08259913  0.63276503  0.43377138    -0.26100
C67         C  0.11691419  0.61130752  0.43547332    -0.01400
C68         C  0.16388063  0.62382950  0.43511570     0.07300
C69         C  0.15580404  0.65337251  0.43334373     0.05300
H70         H  0.10824635  0.58839668  0.43743260     0.10500
H71         H  0.18391061  0.67027560  0.43319238     0.09300
C72         C  0.50374442  0.52245212  0.98812296     0.32200
C73         C  0.50438173  0.56606387  0.05471447     0.32200
C74         C  0.45967239  0.54394952  0.98539413    -0.04000
C75         C  0.50234316  0.51288139  0.04169981    -0.04800
C76         C  0.54968918  0.54257863  0.98699038    -0.04700
C77         C  0.46028391  0.56623257  0.01938279    -0.04000
C78         C  0.50267127  0.53524420  0.07569659    -0.04800
C79         C  0.54972146  0.56486282  0.02102314    -0.04700
C80         C  0.41713616  0.58217137  0.01334300    -0.30100
N81         N  0.39061226  0.57018708  0.47672462     0.16500
C82         C  0.41586789  0.54684478  0.45931250    -0.30100
H83         H  0.40259445  0.53259325  0.43096539     0.18400
C84         C  0.50108318  0.52267438  0.12094065    -0.29000
N85         N  0.49980643  0.49327999  0.11548362     0.15200
C86         C  0.50053758  0.48719279  0.06730065    -0.29000
C87         C  0.59391692  0.57983102  0.01598150    -0.29300
N88         N  0.62054193  0.56726206  0.47992553     0.15700
H89         H  0.60634200  0.59807499  0.03751374     0.18300
C90         C  0.59423422  0.54451639  0.46186441    -0.29300
H91         H  0.60700403  0.53017685  0.43341675     0.18300
H92         H  0.49981053  0.46556091  0.05207450     0.18300
H93         H  0.40511734  0.60051351  0.03489167     0.18400
H94         H  0.50082456  0.53422596  0.15495053     0.18300
C95         C  0.99920677  0.95321014  0.23898505     0.32200
C96         C  0.99865699  0.90967977  0.30593385     0.32200
C97         C  0.04349064  0.93183047  0.23670979    -0.04000
C98         C  0.00024892  0.96284748  0.29250280    -0.04800
C99         C  0.95347137  0.93292860  0.23773372    -0.04700
C100        C  0.04289869  0.90959976  0.27090536    -0.04000
C101        C  0.99996432  0.94052059  0.32665657    -0.04800
C102        C  0.95349534  0.91069055  0.27194146    -0.04700
C103        C  0.08597632  0.89361568  0.26507634    -0.30100
N104        N  0.11250697  0.90555439  0.22838322     0.16500
C105        C  0.08728743  0.92888512  0.21070405    -0.30100
H106        H  0.10049397  0.94301469  0.18213176     0.18400
C107        C  0.00076515  0.95312294  0.37181498    -0.29000
N108        N  0.00151422  0.98251238  0.36617851     0.15200
C109        C  0.00123792  0.98856787  0.31795606    -0.29000
C110        C  0.90941155  0.89563183  0.26685933    -0.29300
N111        N  0.88281459  0.90813595  0.23061940     0.15700
H112        H  0.89700650  0.87743242  0.28855192     0.18300
C113        C  0.90900414  0.93090818  0.21247159    -0.29300
H114        H  0.89614443  0.94521709  0.18393305     0.18300
H115        H  0.00157895  0.01019493  0.30261241     0.18300
H116        H  0.09790100  0.87524907  0.28671714     0.18400
H117        H  0.00069553  0.94159364  0.40589046     0.18300
N118        N  0.57568092  0.84450215  0.18706760    -0.25100
N119        N  0.60054220  0.81966488  0.18441272    -0.33000
C120        C  0.64998231  0.82513659  0.18536254     0.03200
C121        C  0.65645536  0.85473692  0.18869075     0.09300
C122        C  0.60881520  0.86647685  0.18982421    -0.03800
H123        H  0.67899960  0.80871386  0.18422661     0.09900
H124        H  0.59890597  0.88918525  0.19295677     0.11100
Cu125      Cu  0.56713107  0.77917089  0.17991027     0.44200
Cu126      Cu  0.49789920  0.84716190  0.18745793     0.42000
Cu127      Cu  0.43295466  0.77774844  0.17923279     0.43900
N128        N  0.52613469  0.74124315  0.17252892    -0.32500
N129        N  0.47660632  0.74073069  0.17224844    -0.26700
C130        C  0.46110576  0.71336471  0.16427353    -0.02800
C131        C  0.50294694  0.69594479  0.15952774     0.09400
C132        C  0.54354949  0.71421054  0.16474265     0.03200
H133        H  0.42234502  0.70685591  0.16066985     0.10800
H134        H  0.58275289  0.70850334  0.16156746     0.09900
N135        N  0.39704910  0.81758564  0.18367116    -0.33900
N136        N  0.42036398  0.84286909  0.18657308    -0.26100
C137        C  0.38590537  0.86421273  0.18905274    -0.01400
C138        C  0.33902907  0.85161686  0.18747697     0.07300
C139        C  0.34728836  0.82214786  0.18418968     0.05300
H140        H  0.39441126  0.88709327  0.19220572     0.10500
H141        H  0.31928400  0.80521077  0.18270129     0.09300
N142        N  0.42497116  0.13101899  0.43336369    -0.25100
N143        N  0.40013054  0.15590926  0.43224127    -0.33000
C144        C  0.35069542  0.15045457  0.43373351     0.03200
C145        C  0.34418463  0.12080781  0.43581874     0.09300
C146        C  0.39182165  0.10902574  0.43565090    -0.03800
H147        H  0.32171389  0.16691367  0.43390190     0.09900
H148        H  0.40172954  0.08626894  0.43773188     0.11100
Cu149      Cu  0.43364799  0.19643480  0.42917937     0.44200
Cu150      Cu  0.50279925  0.12833491  0.43287660     0.42000
Cu151      Cu  0.56810497  0.19767762  0.42822536     0.43900
N152        N  0.47487729  0.23432847  0.42234339    -0.32500
N153        N  0.52441416  0.23478299  0.42194660    -0.26700
C154        C  0.53995270  0.26216556  0.41408779    -0.02800
C155        C  0.49814507  0.27965245  0.40953337     0.09400
C156        C  0.45751689  0.26140917  0.41475106     0.03200
H157        H  0.57871118  0.26863831  0.41034282     0.10800
H158        H  0.41831940  0.26716013  0.41161509     0.09900
N159        N  0.60390216  0.15771249  0.43126571    -0.33900
N160        N  0.58042049  0.13243523  0.43273950    -0.26100
C161        C  0.61473987  0.11098620  0.43483433    -0.01400
C162        C  0.66172392  0.12349882  0.43451180     0.07300
C163        C  0.65363800  0.15303714  0.43234615     0.05300
H164        H  0.60606185  0.08808569  0.43706439     0.10500
H165        H  0.68174399  0.16994004  0.43213021     0.09300
C166        C  0.00193849  0.02228438  0.98872486     0.32200
C167        C  0.00239186  0.06592346  0.05523100     0.32200
C168        C  0.95751585  0.04355649  0.98621864    -0.04000
C169        C  0.00105462  0.01272289  0.04231501    -0.04800
C170        C  0.04756714  0.04262499  0.98727805    -0.04700
C171        C  0.95803050  0.06585395  0.02018180    -0.04000
C172        C  0.00129162  0.03509954  0.07628743    -0.04800
C173        C  0.04752474  0.06492971  0.02124477    -0.04700
C174        C  0.91476119  0.08169805  0.01417896    -0.30100
N175        N  0.88819810  0.06967068  0.47768769     0.16500
C176        C  0.91360355  0.04638385  0.46024611    -0.30100
H177        H  0.90047135  0.03215618  0.43180443     0.18400
C178        C  0.00048882  0.02251958  0.12155814    -0.29000
N179        N  0.99978040  0.99311205  0.11613013     0.15200
C180        C  0.00009308  0.98702590  0.06794203    -0.29000
C181        C  0.09156543  0.08003947  0.01595122    -0.29300
N182        N  0.11807360  0.06756080  0.47986021     0.15700
H183        H  0.10395867  0.09831453  0.03742665     0.18300
C184        C  0.09189992  0.04471751  0.46199258    -0.29300
H185        H  0.10469859  0.03036561  0.43357330     0.18300
H186        H  0.99972530  0.96538774  0.05272817     0.18300
H187        H  0.90273731  0.10008315  0.03562414     0.18400
H188        H  0.00044990  0.03407203  0.15556850     0.18300
C189        C  0.84031988  0.07875806  0.46309754    -0.16300
C190        C  0.79887925  0.08727358  0.45280434     0.07700
C191        C  0.75036537  0.09842790  0.44394781     0.09600
C192        C  0.70943208  0.10912881  0.43864858    -0.17200
C193        C  0.16628699  0.07605922  0.46557192    -0.16300
C194        C  0.20792007  0.08413794  0.45529239     0.07700
C195        C  0.25648274  0.09501010  0.44614282     0.09600
C196        C  0.29720987  0.10580476  0.44045429    -0.17200
C197        C  0.00219473  0.00448445  0.40345711    -0.14200
C198        C  0.00161930  0.99838100  0.45122226    -0.29400
H199        H  0.00297147  0.02712033  0.39230694     0.14800
H200        H  0.00076457  0.97608181  0.46361607     0.15400
C201        C  0.99958326  0.97719327  0.20128276    -0.14200
C202        C  0.99898101  0.97112595  0.15351841    -0.29400
H203        H  0.00056707  0.99949507  0.21357535     0.14800
H204        H  0.99810262  0.94849380  0.14244831     0.15400
C205        C  0.16029552  0.89632416  0.21402112    -0.16300
C206        C  0.20169826  0.88769390  0.20409565     0.07700
C207        C  0.25021893  0.87649462  0.19584934     0.09600
C208        C  0.29121467  0.86584419  0.19109161    -0.17200
C209        C  0.70346231  0.86971947  0.19294101    -0.16300
C210        C  0.74421539  0.88055232  0.19815658     0.07700
C211        C  0.79281694  0.89151419  0.20670606     0.09600
C212        C  0.83451412  0.89965342  0.21658596    -0.17200
C213        C  0.50466836  0.59043545  0.08902616    -0.16300
C214        C  0.50470353  0.61290652  0.11142563     0.07700
C215        C  0.50446349  0.64096916  0.13208078     0.09600
C216        C  0.50395761  0.66576654  0.14612961    -0.17200
C217        C  0.99934085  0.81014261  0.39827257    -0.16300
C218        C  0.99879179  0.83491200  0.38398523     0.07700
C219        C  0.99846030  0.86293440  0.36306410     0.09600
C220        C  0.99841759  0.88536336  0.34045683    -0.17200
C221        C  0.21158958  0.60945538  0.43880433    -0.16300
C222        C  0.25257491  0.59878603  0.44374162     0.07700
C223        C  0.30117281  0.58770247  0.45223510     0.09600
C224        C  0.34268441  0.57924345  0.46230917    -0.17200
C225        C  0.66882845  0.57572586  0.46581876    -0.16300
C226        C  0.71047557  0.58389334  0.45579953     0.07700
C227        C  0.75897289  0.59496460  0.44702125     0.09600
C228        C  0.79961047  0.60592485  0.44164673    -0.17200
C229        C  0.49647027  0.38540228  0.33947589    -0.16300
C230        C  0.49638683  0.36285953  0.36177672     0.07700
C231        C  0.49662833  0.33471223  0.38225176     0.09600
C232        C  0.49714885  0.30986735  0.39619006    -0.17200
C233        C  0.50358713  0.50456586  0.40278689    -0.14200
C234        C  0.50314543  0.49849752  0.45057141    -0.29400
H235        H  0.50482322  0.52719021  0.39161294     0.14800
H236        H  0.50180187  0.47620865  0.46297897     0.15400
C237        C  0.49812228  0.47131142  0.15285521    -0.14200
C238        C  0.49855661  0.47737995  0.20061908    -0.29400
H239        H  0.49689841  0.44868603  0.14177528     0.14800
H240        H  0.49990383  0.49967133  0.21293053     0.15400
C241        C  0.00259986  0.09034441  0.08943720    -0.16300
C242        C  0.00260895  0.11292254  0.11153385     0.07700
C243        C  0.00239477  0.14112532  0.13165166     0.09600
C244        C  0.00195938  0.16602835  0.14517656    -0.17200
C245        C  0.65837311  0.39614752  0.21288513    -0.16300
C246        C  0.69979442  0.38763435  0.20272254     0.07700
C247        C  0.74841124  0.37667882  0.19403293     0.09600
C248        C  0.78951123  0.36622428  0.18885869    -0.17200
C249        C  0.20210443  0.37002167  0.19037101    -0.16300
C250        C  0.24284150  0.38084698  0.19587107     0.07700
C251        C  0.29136791  0.39184146  0.20484893     0.09600
C252        C  0.33295499  0.40003052  0.21511400    -0.17200
N253        N  0.07419980  0.34498108  0.68409004    -0.25100
N254        N  0.09899047  0.32010255  0.68179693    -0.33000
C255        C  0.14845068  0.32552359  0.68285082     0.03200
C256        C  0.15503171  0.35513027  0.68586642     0.09300
C257        C  0.10741611  0.36692534  0.68671030    -0.03800
H258        H  0.17741148  0.30905947  0.68205739     0.09900
H259        H  0.09757758  0.38965472  0.68962597     0.11100
Cu260      Cu  0.06552766  0.27958971  0.67772390     0.44200
Cu261      Cu  0.99637621  0.34777456  0.68435249     0.42000
Cu262      Cu  0.93144131  0.27839044  0.67637596     0.43900
N263        N  0.02441165  0.24167863  0.67054013    -0.32500
N264        N  0.97488459  0.24126483  0.66996178    -0.26700
C265        C  0.95925731  0.21389299  0.66228315    -0.02800
C266        C  0.00101557  0.19635992  0.65804773     0.09400
C267        C  0.04170428  0.21456747  0.66325067     0.03200
H268        H  0.92047506  0.20744251  0.65860594     0.10800
H269        H  0.08089314  0.20875420  0.66045032     0.09900
N270        N  0.89551445  0.31821195  0.68070326    -0.33900
N271        N  0.91878492  0.34351067  0.68355289    -0.26100
C272        C  0.88426240  0.36482135  0.68620048    -0.01400
C273        C  0.83740317  0.35217589  0.68478249     0.07300
C274        C  0.84574802  0.32272246  0.68141675     0.05300
H275        H  0.89270971  0.38770405  0.68944585     0.10500
H276        H  0.81779414  0.30575171  0.68010792     0.09300
C277        C  0.49689076  0.40979356  0.80504970     0.32200
C278        C  0.49780557  0.45340240  0.73825937     0.32200
C279        C  0.45163061  0.41104374  0.77116769    -0.04000
C280        C  0.49868029  0.44061507  0.82590043    -0.04800
C281        C  0.54104184  0.40957022  0.76989047    -0.04700
C282        C  0.45180297  0.43332083  0.73703187    -0.04000
C283        C  0.49915196  0.46297506  0.79180307    -0.04800
C284        C  0.54179645  0.43184558  0.73579866    -0.04700
C285        C  0.40744252  0.43135561  0.71156438    -0.30100
N286        N  0.38110579  0.40858398  0.72952983     0.16500
C287        C  0.40752755  0.39601984  0.76583956    -0.30100
H288        H  0.39506559  0.37773819  0.78730898     0.18400
C289        C  0.50111001  0.48866295  0.81729513    -0.29000
N290        N  0.50179639  0.48257705  0.86550351     0.15200
C291        C  0.50033538  0.45318728  0.87108813    -0.29000
C292        C  0.58553221  0.42883637  0.70973635    -0.29300
N293        N  0.61059436  0.40541477  0.72726142     0.15700
H294        H  0.59884550  0.44300761  0.68126781     0.18300
C295        C  0.58400928  0.39348191  0.76393571    -0.29300
H296        H  0.59585523  0.37507555  0.78552135     0.18300
H297        H  0.50052937  0.44163884  0.90514699     0.18300
H298        H  0.39482622  0.44564497  0.68289971     0.18400
H299        H  0.50199172  0.51029134  0.80197962     0.18300
N300        N  0.92721645  0.63132517  0.93480096    -0.25100
N301        N  0.90230789  0.65619858  0.93421875    -0.33000
C302        C  0.85289277  0.65067873  0.93577381     0.03200
C303        C  0.84649068  0.62100882  0.93733536     0.09300
C304        C  0.89415405  0.60928343  0.93678896    -0.03800
H305        H  0.82385487  0.66710140  0.93627787     0.09900
H306        H  0.90414352  0.58652436  0.93836417     0.11100
Cu307      Cu  0.93575451  0.69676598  0.93162328     0.44200
Cu308      Cu  0.00500271  0.62867160  0.93393854     0.42000
Cu309      Cu  0.07025547  0.69796718  0.92997234     0.43900
N310        N  0.97703738  0.73465300  0.92486950    -0.32500
N311        N  0.02657168  0.73507715  0.92419231    -0.26700
C312        C  0.04212570  0.76244460  0.91625065    -0.02800
C313        C  0.00033491  0.77995936  0.91194374     0.09400
C314        C  0.95969560  0.76174745  0.91738383     0.03200
H315        H  0.08086910  0.76887566  0.91217815     0.10800
H316        H  0.92049798  0.76751682  0.91435057     0.09900
N317        N  0.10606307  0.65801919  0.93243906    -0.33900
N318        N  0.08258252  0.63273969  0.93364635    -0.26100
C319        C  0.11689092  0.61127835  0.93534881    -0.01400
C320        C  0.16386181  0.62379596  0.93504614     0.07300
C321        C  0.15579354  0.65334078  0.93330477     0.05300
H322        H  0.10821525  0.58836767  0.93727746     0.10500
H323        H  0.18390454  0.67024167  0.93320120     0.09300
C324        C  0.50376360  0.52249094  0.48812144     0.32200
C325        C  0.50441146  0.56610329  0.55471647     0.32200
C326        C  0.45969767  0.54399161  0.48539407    -0.04000
C327        C  0.50236115  0.51292055  0.54169772    -0.04800
C328        C  0.54971107  0.54261438  0.48698857    -0.04700
C329        C  0.46031410  0.56627438  0.51938413    -0.04000
C330        C  0.50269453  0.53528211  0.57569768    -0.04800
C331        C  0.54974982  0.56489877  0.52102234    -0.04700
C332        C  0.41717099  0.58221649  0.51334404    -0.30100
N333        N  0.39057868  0.57013929  0.97672440     0.16500
C334        C  0.41584042  0.54679886  0.95931330    -0.30100
H335        H  0.40257030  0.53254601  0.93096606     0.18400
C336        C  0.50109775  0.52270822  0.62094001    -0.29000
N337        N  0.49981053  0.49331415  0.61547634     0.15200
C338        C  0.50054442  0.48723061  0.56729265    -0.29000
C339        C  0.59394134  0.57986905  0.51596722    -0.29300
N340        N  0.62052799  0.56722271  0.97994832     0.15700
H341        H  0.60636904  0.59811552  0.53749278     0.18300
C342        C  0.59422190  0.54447822  0.96187978    -0.29300
H343        H  0.60700057  0.53013623  0.93343900     0.18300
H344        H  0.49980921  0.46560013  0.55206201     0.18300
H345        H  0.40515515  0.60055940  0.53489431     0.18400
H346        H  0.50083847  0.53425648  0.65495312     0.18300
C347        C  0.99921962  0.95317528  0.73893330     0.32200
C348        C  0.99867025  0.90962465  0.80584430     0.32200
C349        C  0.04350240  0.93179800  0.73663903    -0.04000
C350        C  0.00025713  0.96279495  0.79245632    -0.04800
C351        C  0.95349176  0.93289112  0.73765687    -0.04700
C352        C  0.04291402  0.90955590  0.77081557    -0.04000
C353        C  0.99997237  0.94045957  0.82659265    -0.04800
C354        C  0.95351242  0.91064182  0.77184527    -0.04700
C355        C  0.08598334  0.89356834  0.76495366    -0.30100
N356        N  0.11250133  0.90551734  0.72826039     0.16500
C357        C  0.08728360  0.92885621  0.71061273    -0.30100
H358        H  0.10048333  0.94299423  0.68204868     0.18400
C359        C  0.00077949  0.95305191  0.87176062    -0.29000
N360        N  0.00153263  0.98244259  0.86614095     0.15200
C361        C  0.00125259  0.98850864  0.81792368    -0.29000
C362        C  0.90944801  0.89556952  0.76671377    -0.29300
N363        N  0.88287051  0.90807788  0.73046385     0.15700
H364        H  0.89704417  0.87735651  0.78837617     0.18300
C365        C  0.90905138  0.93086426  0.71235768    -0.29300
H366        H  0.89620364  0.94517694  0.68381927     0.18300
H367        H  0.00159852  0.01013929  0.80259331     0.18300
H368        H  0.09791205  0.87519322  0.78657261     0.18400
H369        H  0.00071516  0.94151633  0.90583064     0.18300
N370        N  0.57570653  0.84455467  0.68679416    -0.25100
N371        N  0.60055417  0.81970871  0.68424654    -0.33000
C372        C  0.64999578  0.82517152  0.68520254     0.03200
C373        C  0.65648369  0.85477452  0.68842123     0.09300
C374        C  0.60885125  0.86652665  0.68948531    -0.03800
H375        H  0.67900408  0.80874106  0.68415317     0.09900
H376        H  0.59895354  0.88924105  0.69253895     0.11100
Cu377      Cu  0.56712900  0.77921358  0.67989044     0.44200
Cu378      Cu  0.49793153  0.84722509  0.68717583     0.42000
Cu379      Cu  0.43297196  0.77778430  0.67941346     0.43900
N380        N  0.52613687  0.74127752  0.67260642    -0.32500
N381        N  0.47660868  0.74076018  0.67240527    -0.26700
C382        C  0.46110350  0.71339344  0.66443917    -0.02800
C383        C  0.50294285  0.69597803  0.65961569     0.09400
C384        C  0.54354706  0.71424837  0.66477750     0.03200
H385        H  0.42233959  0.70688295  0.66087734     0.10800
H386        H  0.58274676  0.70854813  0.66152267     0.09900
N387        N  0.39708511  0.81763401  0.68370767    -0.33900
N388        N  0.42040179  0.84292475  0.68642018    -0.26100
C389        C  0.38594641  0.86427348  0.68881750    -0.01400
C390        C  0.33907072  0.85167226  0.68738610     0.07300
C391        C  0.34732613  0.82219669  0.68426993     0.05300
H392        H  0.39445506  0.88716129  0.69181461     0.10500
H393        H  0.31932047  0.80525649  0.68291625     0.09300
N394        N  0.42499731  0.13103269  0.93329363    -0.25100
N395        N  0.40014528  0.15592055  0.93227447    -0.33000
C396        C  0.35071317  0.15045730  0.93382451     0.03200
C397        C  0.34421515  0.12080657  0.93584010     0.09300
C398        C  0.39185906  0.10903253  0.93556918    -0.03800
H399        H  0.32172566  0.16691225  0.93407449     0.09900
H400        H  0.40177995  0.08627523  0.93757337     0.11100
Cu401      Cu  0.43366243  0.19645044  0.92926552     0.44200
Cu402      Cu  0.50283225  0.12836405  0.93271526     0.42000
Cu403      Cu  0.56815611  0.19770126  0.92831110     0.43900
N404        N  0.47490253  0.23434355  0.92244258    -0.32500
N405        N  0.52444015  0.23480151  0.92204753    -0.26700
C406        C  0.53997166  0.26218406  0.91417088    -0.02800
C407        C  0.49816039  0.27966716  0.90960199     0.09400
C408        C  0.45753701  0.26142158  0.91483157     0.03200
H409        H  0.57872697  0.26865760  0.91041052     0.10800
H410        H  0.41833883  0.26716745  0.91167842     0.09900
N411        N  0.60395411  0.15773035  0.93127285    -0.33900
N412        N  0.58046149  0.13245434  0.93264092    -0.26100
C413        C  0.61477146  0.11099847  0.93470326    -0.01400
C414        C  0.66176307  0.12350368  0.93447266     0.07300
C415        C  0.65368861  0.15304651  0.93239236     0.05300
H416        H  0.60608149  0.08809678  0.93685391     0.10500
H417        H  0.68180150  0.16994577  0.93225742     0.09300
C418        C  0.00191338  0.02235353  0.48876888     0.32200
C419        C  0.00237245  0.06597502  0.55531134     0.32200
C420        C  0.95749338  0.04362454  0.48628431    -0.04000
C421        C  0.00103772  0.01277801  0.54234922    -0.04800
C422        C  0.04753561  0.04269505  0.48733206    -0.04700
C423        C  0.95800839  0.06591299  0.52026499    -0.04000
C424        C  0.00127738  0.03514333  0.57634369    -0.04800
C425        C  0.04749943  0.06499117  0.52131596    -0.04700
C426        C  0.91474383  0.08176136  0.51426679    -0.30100
N427        N  0.88820846  0.06959747  0.97761345     0.16500
C428        C  0.91361733  0.04630698  0.96018495    -0.30100
H429        H  0.90048180  0.03207040  0.93175730     0.18400
C430        C  0.00048414  0.02254360  0.62160087    -0.29000
N431        N  0.99977914  0.99313760  0.61613759     0.15200
C432        C  0.00008411  0.98707141  0.56794463    -0.29000
C433        C  0.09153201  0.08010718  0.51601229    -0.29300
N434        N  0.11812379  0.06748236  0.97982117     0.15700
H435        H  0.10393063  0.09837901  0.53749233     0.18300
C436        C  0.09194894  0.04463681  0.96195732    -0.29300
H437        H  0.10475773  0.03027573  0.93355585     0.18300
H438        H  0.99971778  0.96543919  0.55270612     0.18300
H439        H  0.90271943  0.10014230  0.53572088     0.18400
H440        H  0.00045046  0.03408121  0.65562565     0.18300
C441        C  0.84032678  0.07868590  0.96302355    -0.16300
C442        C  0.79888844  0.08721487  0.95273980     0.07700
C443        C  0.75038457  0.09839579  0.94389692     0.09600
C444        C  0.70946341  0.10911813  0.93860581    -0.17200
C445        C  0.16634649  0.07598052  0.96554952    -0.16300
C446        C  0.20798079  0.08407312  0.95529274     0.07700
C447        C  0.25653510  0.09497242  0.94616543     0.09600
C448        C  0.29724990  0.10578818  0.94048352    -0.17200
C449        C  0.00222274  0.00441001  0.90342507    -0.14200
C450        C  0.00164563  0.99830588  0.95118921    -0.29400
H451        H  0.00300339  0.02704668  0.89227795     0.14800
H452        H  0.00078549  0.97600696  0.96358545     0.15400
C453        C  0.99959424  0.97717556  0.70126316    -0.14200
C454        C  0.99899036  0.97113227  0.65349297    -0.29400
H455        H  0.00057312  0.99947155  0.71358370     0.14800
H456        H  0.99811599  0.94850566  0.64239091     0.15400
C457        C  0.16029275  0.89630282  0.71388645    -0.16300
C458        C  0.20170750  0.88769903  0.70395196     0.07700
C459        C  0.25024950  0.87653493  0.69570856     0.09600
C460        C  0.29125891  0.86590200  0.69096771    -0.17200
C461        C  0.70349730  0.86974692  0.69266747    -0.16300
C462        C  0.74426587  0.88055534  0.69789735     0.07700
C463        C  0.79288274  0.89148082  0.70647968     0.09600
C464        C  0.83458121  0.89959929  0.71639477    -0.17200
C465        C  0.50469805  0.59047886  0.58902584    -0.16300
C466        C  0.50472067  0.61295178  0.61142427     0.07700
C467        C  0.50446161  0.64101258  0.63209422     0.09600
C468        C  0.50394655  0.66580528  0.64617144    -0.17200
C469        C  0.99933553  0.81011616  0.89828510    -0.16300
C470        C  0.99879237  0.83487821  0.88396486     0.07700
C471        C  0.99846823  0.86288672  0.86299492     0.09600
C472        C  0.99843029  0.88530499  0.84035948    -0.17200
C473        C  0.21156460  0.60941531  0.93876067    -0.16300
C474        C  0.25254475  0.59874099  0.94371662     0.07700
C475        C  0.30113913  0.58765370  0.95222472     0.09600
C476        C  0.34264978  0.57919423  0.96230553    -0.17200
C477        C  0.66882195  0.57568419  0.96585861    -0.16300
C478        C  0.71047227  0.58385205  0.95584945     0.07700
C479        C  0.75896777  0.59492661  0.94706639     0.09600
C480        C  0.79960004  0.60589070  0.94167052    -0.17200
C481        C  0.49647065  0.38539161  0.83941346    -0.16300
C482        C  0.49638937  0.36285190  0.86172421     0.07700
C483        C  0.49663345  0.33471253  0.88223238     0.09600
C484        C  0.49715794  0.30987514  0.89621006    -0.17200
C485        C  0.50357056  0.50453971  0.90278784    -0.14200
C486        C  0.50313198  0.49846246  0.95056875    -0.29400
H487        H  0.50480114  0.52716641  0.89162532     0.14800
H488        H  0.50179371  0.47617158  0.96296840     0.15400
C489        C  0.49811440  0.47134032  0.65283924    -0.14200
C490        C  0.49854183  0.47740040  0.70060614    -0.29400
H491        H  0.49688999  0.44871707  0.64174948     0.14800
H492        H  0.49988936  0.49968950  0.71292820     0.15400
C493        C  0.00257937  0.09039235  0.58952884    -0.16300
C494        C  0.00257806  0.11297327  0.61162084     0.07700
C495        C  0.00234973  0.14117937  0.63173204     0.09600
C496        C  0.00190855  0.16608303  0.64525799    -0.17200
C497        C  0.65836761  0.39618636  0.71282999    -0.16300
C498        C  0.69979719  0.38768850  0.70267522     0.07700
C499        C  0.74842151  0.37674738  0.69400134     0.09600
C500        C  0.78952421  0.36629796  0.68884210    -0.17200
C501        C  0.20208561  0.37006883  0.69032631    -0.16300
C502        C  0.24282439  0.38088773  0.69583323     0.07700
C503        C  0.29135364  0.39187148  0.70481429     0.09600
C504        C  0.33294411  0.40005156  0.71507766    -0.17200
loop_ 
_geom_bond_atom_site_label_1 
_geom_bond_atom_site_label_2 
_geom_bond_distance 
_geom_bond_site_symmetry_2 
_ccdc_geom_bond_type 
N1            N2   1.324       .  A
N1            C5   1.348       .  A
N1           Cu9   2.081   1_455  S
N2            C3   1.344       .  A
N2           Cu8   2.073       .  S
C3            C4   1.378       .  A
C3            H6   1.082       .  S
C4            C5   1.381       .  A
C4          C249   1.438       .  S
C5            H7   1.082       .  S
Cu8          N11   2.074       .  S
Cu9          N19   2.081       .  S
Cu10         N12   2.072       .  S
Cu10         N18   2.072       .  S
N11          N12   1.322   1_455  A
N11          C15   1.346       .  A
N12          C13   1.346       .  A
C13          C14   1.380   1_655  A
C13          H16   1.082       .  S
C14          C15   1.381       .  A
C14         C244   1.439       .  S
C15          H17   1.082       .  S
N18          N19   1.324       .  A
N18          C22   1.344       .  A
N19          C20   1.347       .  A
C20          C21   1.381       .  A
C20          H23   1.082       .  S
C21          C22   1.378       .  A
C21         C248   1.438       .  S
C22          H24   1.082       .  S
C25          C27   1.529       .  S
C25          C29   1.528       .  S
C25          C28   1.534       .  S
C25         C229   1.471       .  S
C26          C30   1.539       .  S
C26          C32   1.538       .  S
C26          C31   1.545       .  S
C26         C238   1.518       .  S
C27          C35   1.374       .  A
C27          C30   1.393       .  A
C28          C39   1.378       .  A
C28          C31   1.395       .  A
C29          C43   1.374       .  A
C29          C32   1.392       .  A
C30          C33   1.380       .  A
C31          C37   1.379       .  A
C32          C40   1.379       .  A
C33          N34   1.358       .  A
C33          H46   1.083       .  S
N34          C35   1.355       .  A
N34         C252   1.403       .  S
C35          H36   1.083       .  S
C37          N38   1.362       .  A
C37          H47   1.082       .  S
N38          C39   1.363       .  A
N38         C233   1.446       .  S
C39          H45   1.081       .  S
C40          N41   1.357       .  A
C40          H42   1.083       .  S
N41          C43   1.355       .  A
N41         C245   1.402       .  S
C43          H44   1.083       .  S
N48          N49   1.324       .  A
N48          C52   1.347       .  A
N48         Cu56   2.080   1_655  S
N49          C50   1.344       .  A
N49         Cu55   2.073       .  S
C50          C51   1.378       .  A
C50          H53   1.082       .  S
C51          C52   1.381       .  A
C51         C228   1.438       .  S
C52          H54   1.082       .  S
Cu55         N58   2.074       .  S
Cu56         N66   2.079       .  S
Cu57         N59   2.073       .  S
Cu57         N65   2.073       .  S
N58          N59   1.322   1_655  A
N58          C62   1.346       .  A
N59          C60   1.346       .  A
C60          C61   1.380       .  A
C60          H63   1.082       .  S
C61          C62   1.381   1_455  A
C61         C217   1.439   1_455  S
C62          H64   1.082       .  S
N65          N66   1.324       .  A
N65          C69   1.344       .  A
N66          C67   1.347       .  A
C67          C68   1.381       .  A
C67          H70   1.082       .  S
C68          C69   1.378       .  A
C68         C221   1.438       .  S
C69          H71   1.082       .  S
C72          C74   1.538       .  S
C72          C76   1.539       .  S
C72          C75   1.545   1_556  S
C72         C486   1.517       .  S
C73          C77   1.529       .  S
C73          C79   1.529       .  S
C73          C78   1.534       .  S
C73         C213   1.471       .  S
C74          C77   1.392   1_556  A
C74         C334   1.379       .  A
C75          C86   1.379       .  A
C75          C78   1.395       .  A
C76          C79   1.393   1_556  A
C76         C342   1.380       .  A
C77          C80   1.375       .  A
C78          C84   1.378       .  A
C79          C87   1.374       .  A
C80         N333   1.355   1_554  A
C80          H93   1.083       .  S
N81          C82   1.357       .  A
N81         C332   1.355       .  A
N81         C224   1.402       .  S
C82         C326   1.379       .  A
C82          H83   1.083       .  S
C84          N85   1.363       .  A
C84          H94   1.081       .  S
N85          C86   1.362       .  A
N85         C237   1.446       .  S
C86          H92   1.082       .  S
C87         N340   1.355   1_554  A
C87          H89   1.083       .  S
N88          C90   1.358       .  A
N88         C339   1.355       .  A
N88         C225   1.403       .  S
C90         C328   1.380       .  A
C90          H91   1.083       .  S
C95          C97   1.538   1_655  S
C95          C99   1.539       .  S
C95          C98   1.545   1_655  S
C95         C201   1.518       .  S
C96         C100   1.528   1_655  S
C96         C102   1.528       .  S
C96         C101   1.533       .  S
C96         C220   1.471       .  S
C97         C105   1.380       .  A
C97         C100   1.393       .  A
C98         C109   1.379       .  A
C98         C101   1.395   1_455  A
C99         C113   1.380       .  A
C99         C102   1.393       .  A
C100        C103   1.374       .  A
C101        C107   1.377   1_655  A
C102        C110   1.374       .  A
C103        N104   1.354       .  A
C103        H116   1.083       .  S
N104        C105   1.357       .  A
N104        C205   1.402       .  S
C105        H106   1.083       .  S
C107        N108   1.363       .  A
C107        H117   1.081       .  S
N108        C109   1.362       .  A
N108        C197   1.445   1_565  S
C109        H115   1.082   1_565  S
C110        N111   1.355       .  A
C110        H112   1.083       .  S
N111        C113   1.357       .  A
N111        C212   1.402       .  S
C113        H114   1.083       .  S
N118        N119   1.324       .  A
N118        C122   1.347       .  A
N118       Cu126   2.079       .  S
N119        C120   1.344       .  A
N119       Cu125   2.073       .  S
C120        C121   1.378       .  A
C120        H123   1.082       .  S
C121        C122   1.381       .  A
C121        C209   1.438       .  S
C122        H124   1.082       .  S
Cu125       N128   2.073       .  S
Cu126       N136   2.079       .  S
Cu127       N129   2.073       .  S
Cu127       N135   2.072       .  S
N128        N129   1.322       .  A
N128        C132   1.346       .  A
N129        C130   1.346       .  A
C130        C131   1.380       .  A
C130        H133   1.082       .  S
C131        C132   1.381       .  A
C131        C216   1.439       .  S
C132        H134   1.082       .  S
N135        N136   1.324       .  A
N135        C139   1.344       .  A
N136        C137   1.347       .  A
C137        C138   1.381       .  A
C137        H140   1.082       .  S
C138        C139   1.378       .  A
C138        C208   1.437       .  S
C139        H141   1.082       .  S
N142        N143   1.324       .  A
N142        C146   1.348       .  A
N142       Cu150   2.081       .  S
N143        C144   1.344       .  A
N143       Cu149   2.073       .  S
C144        C145   1.378       .  A
C144        H147   1.082       .  S
C145        C146   1.381       .  A
C145        C196   1.438       .  S
C146        H148   1.082       .  S
Cu149       N152   2.074       .  S
Cu150       N160   2.081       .  S
Cu151       N153   2.074       .  S
Cu151       N159   2.074       .  S
N152        N153   1.322       .  A
N152        C156   1.346       .  A
N153        C154   1.346       .  A
C154        C155   1.381       .  A
C154        H157   1.082       .  S
C155        C156   1.381       .  A
C155        C232   1.440       .  S
C156        H158   1.082       .  S
N159        N160   1.324       .  A
N159        C163   1.345       .  A
N160        C161   1.347       .  A
C161        C162   1.381       .  A
C161        H164   1.082       .  S
C162        C163   1.378       .  A
C162        C192   1.438       .  S
C163        H165   1.082       .  S
C166        C168   1.538   1_455  S
C166        C170   1.538       .  S
C166        C169   1.545   1_556  S
C166        C450   1.516   1_545  S
C167        C171   1.529   1_455  S
C167        C173   1.529       .  S
C167        C172   1.534       .  S
C167        C241   1.470       .  S
C168        C171   1.392   1_556  A
C168        C428   1.380       .  A
C169        C180   1.379   1_545  A
C169        C172   1.395       .  A
C170        C173   1.393   1_556  A
C170        C436   1.380       .  A
C171        C174   1.375       .  A
C172        C178   1.379       .  A
C173        C181   1.375       .  A
C174        N427   1.355   1_554  A
C174        H187   1.083       .  S
N175        C176   1.357       .  A
N175        C426   1.355       .  A
N175        C189   1.403       .  S
C176        C420   1.380       .  A
C176        H177   1.083       .  S
C178        N179   1.363   1_445  A
C178        H188   1.081       .  S
N179        C180   1.362   1_655  A
N179        C202   1.446       .  S
C180        H186   1.082   1_455  S
C181        N434   1.355   1_554  A
C181        H183   1.083       .  S
N182        C184   1.357       .  A
N182        C433   1.355       .  A
N182        C193   1.403       .  S
C184        C422   1.380       .  A
C184        H185   1.083       .  S
C189        C190   1.206       .  T
C190        C191   1.413       .  S
C191        C192   1.206       .  T
C193        C194   1.207       .  T
C194        C195   1.413       .  S
C195        C196   1.206       .  T
C197        C198   1.350   1_545  D
C197        H199   1.087       .  S
C198        C418   1.516   1_565  S
C198        H200   1.083       .  S
C201        C202   1.350       .  D
C201        H203   1.083   1_655  S
C202        H204   1.087       .  S
C205        C206   1.206       .  T
C206        C207   1.412       .  S
C207        C208   1.206       .  T
C209        C210   1.206       .  T
C210        C211   1.413       .  S
C211        C212   1.206       .  T
C213        C214   1.207       .  T
C214        C215   1.414       .  S
C215        C216   1.207       .  T
C217        C218   1.207       .  T
C218        C219   1.414       .  S
C219        C220   1.207       .  T
C221        C222   1.206       .  T
C222        C223   1.412       .  S
C223        C224   1.206       .  T
C225        C226   1.206       .  T
C226        C227   1.413       .  S
C227        C228   1.206       .  T
C229        C230   1.207       .  T
C230        C231   1.414       .  S
C231        C232   1.207       .  T
C233        C234   1.350       .  D
C233        H235   1.087       .  S
C234        C324   1.517       .  S
C234        H236   1.083       .  S
C237        C238   1.350       .  D
C237        H239   1.087       .  S
C238        H240   1.083       .  S
C241        C242   1.207       .  T
C242        C243   1.414       .  S
C243        C244   1.207       .  T
C245        C246   1.206       .  T
C246        C247   1.412       .  S
C247        C248   1.206       .  T
C249        C250   1.206       .  T
C250        C251   1.413       .  S
C251        C252   1.207       .  T
N253        N254   1.324       .  A
N253        C257   1.348       .  A
N253       Cu261   2.081   1_455  S
N254        C255   1.344       .  A
N254       Cu260   2.073       .  S
C255        C256   1.378       .  A
C255        H258   1.082       .  S
C256        C257   1.381       .  A
C256        C501   1.438       .  S
C257        H259   1.082       .  S
Cu260       N263   2.074       .  S
Cu261       N271   2.081       .  S
Cu262       N264   2.072       .  S
Cu262       N270   2.072       .  S
N263        N264   1.322   1_455  A
N263        C267   1.346       .  A
N264        C265   1.346       .  A
C265        C266   1.380   1_655  A
C265        H268   1.082       .  S
C266        C267   1.381       .  A
C266        C496   1.439       .  S
C267        H269   1.082       .  S
N270        N271   1.324       .  A
N270        C274   1.344       .  A
N271        C272   1.347       .  A
C272        C273   1.381       .  A
C272        H275   1.082       .  S
C273        C274   1.378       .  A
C273        C500   1.437       .  S
C274        H276   1.082       .  S
C277        C279   1.529       .  S
C277        C281   1.528       .  S
C277        C280   1.534       .  S
C277        C481   1.471       .  S
C278        C282   1.539       .  S
C278        C284   1.538       .  S
C278        C283   1.545       .  S
C278        C490   1.518       .  S
C279        C287   1.374       .  A
C279        C282   1.393       .  A
C280        C291   1.378       .  A
C280        C283   1.395       .  A
C281        C295   1.374       .  A
C281        C284   1.393       .  A
C282        C285   1.380       .  A
C283        C289   1.379       .  A
C284        C292   1.379       .  A
C285        N286   1.358       .  A
C285        H298   1.083       .  S
N286        C287   1.355       .  A
N286        C504   1.403       .  S
C287        H288   1.083       .  S
C289        N290   1.362       .  A
C289        H299   1.082       .  S
N290        C291   1.363       .  A
N290        C485   1.446       .  S
C291        H297   1.081       .  S
C292        N293   1.357       .  A
C292        H294   1.083       .  S
N293        C295   1.355       .  A
N293        C497   1.402       .  S
C295        H296   1.083       .  S
N300        N301   1.324       .  A
N300        C304   1.347       .  A
N300       Cu308   2.080   1_655  S
N301        C302   1.344       .  A
N301       Cu307   2.073       .  S
C302        C303   1.378       .  A
C302        H305   1.082       .  S
C303        C304   1.381       .  A
C303        C480   1.438       .  S
C304        H306   1.082       .  S
Cu307       N310   2.074       .  S
Cu308       N318   2.079       .  S
Cu309       N311   2.073       .  S
Cu309       N317   2.073       .  S
N310        N311   1.322   1_655  A
N310        C314   1.346       .  A
N311        C312   1.346       .  A
C312        C313   1.380       .  A
C312        H315   1.082       .  S
C313        C314   1.381   1_455  A
C313        C469   1.439   1_455  S
C314        H316   1.082       .  S
N317        N318   1.324       .  A
N317        C321   1.344       .  A
N318        C319   1.347       .  A
C319        C320   1.381       .  A
C319        H322   1.082       .  S
C320        C321   1.378       .  A
C320        C473   1.438       .  S
C321        H323   1.082       .  S
C324        C326   1.538       .  S
C324        C328   1.539       .  S
C324        C327   1.545       .  S
C325        C329   1.529       .  S
C325        C331   1.529       .  S
C325        C330   1.534       .  S
C325        C465   1.471       .  S
C326        C329   1.392       .  A
C327        C338   1.379       .  A
C327        C330   1.395       .  A
C328        C331   1.393       .  A
C329        C332   1.374       .  A
C330        C336   1.378       .  A
C331        C339   1.374       .  A
C332        H345   1.083       .  S
N333        C334   1.357       .  A
N333        C476   1.402       .  S
C334        H335   1.083       .  S
C336        N337   1.363       .  A
C336        H346   1.081       .  S
N337        C338   1.362       .  A
N337        C489   1.446       .  S
C338        H344   1.082       .  S
C339        H341   1.083       .  S
N340        C342   1.358       .  A
N340        C477   1.403       .  S
C342        H343   1.083       .  S
C347        C349   1.538   1_655  S
C347        C351   1.539       .  S
C347        C350   1.545   1_655  S
C347        C453   1.518       .  S
C348        C352   1.528   1_655  S
C348        C354   1.528       .  S
C348        C353   1.533       .  S
C348        C472   1.471       .  S
C349        C357   1.379       .  A
C349        C352   1.393       .  A
C350        C361   1.379       .  A
C350        C353   1.395   1_455  A
C351        C365   1.380       .  A
C351        C354   1.393       .  A
C352        C355   1.374       .  A
C353        C359   1.378   1_655  A
C354        C362   1.374       .  A
C355        N356   1.354       .  A
C355        H368   1.083       .  S
N356        C357   1.357       .  A
N356        C457   1.402       .  S
C357        H358   1.083       .  S
C359        N360   1.363       .  A
C359        H369   1.081       .  S
N360        C361   1.362       .  A
N360        C449   1.445   1_565  S
C361        H367   1.082   1_565  S
C362        N363   1.355       .  A
C362        H364   1.083       .  S
N363        C365   1.357       .  A
N363        C464   1.402       .  S
C365        H366   1.083       .  S
N370        N371   1.324       .  A
N370        C374   1.347       .  A
N370       Cu378   2.079       .  S
N371        C372   1.344       .  A
N371       Cu377   2.073       .  S
C372        C373   1.378       .  A
C372        H375   1.082       .  S
C373        C374   1.381       .  A
C373        C461   1.438       .  S
C374        H376   1.082       .  S
Cu377       N380   2.073       .  S
Cu378       N388   2.079       .  S
Cu379       N381   2.073       .  S
Cu379       N387   2.072       .  S
N380        N381   1.322       .  A
N380        C384   1.346       .  A
N381        C382   1.346       .  A
C382        C383   1.380       .  A
C382        H385   1.082       .  S
C383        C384   1.381       .  A
C383        C468   1.439       .  S
C384        H386   1.082       .  S
N387        N388   1.324       .  A
N387        C391   1.344       .  A
N388        C389   1.347       .  A
C389        C390   1.381       .  A
C389        H392   1.082       .  S
C390        C391   1.378       .  A
C390        C460   1.437       .  S
C391        H393   1.082       .  S
N394        N395   1.324       .  A
N394        C398   1.348       .  A
N394       Cu402   2.081       .  S
N395        C396   1.344       .  A
N395       Cu401   2.073       .  S
C396        C397   1.378       .  A
C396        H399   1.082       .  S
C397        C398   1.382       .  A
C397        C448   1.439       .  S
C398        H400   1.082       .  S
Cu401       N404   2.074       .  S
Cu402       N412   2.081       .  S
Cu403       N405   2.074       .  S
Cu403       N411   2.074       .  S
N404        N405   1.322       .  A
N404        C408   1.346       .  A
N405        C406   1.346       .  A
C406        C407   1.381       .  A
C406        H409   1.082       .  S
C407        C408   1.381       .  A
C407        C484   1.440       .  S
C408        H410   1.082       .  S
N411        N412   1.324       .  A
N411        C415   1.345       .  A
N412        C413   1.347       .  A
C413        C414   1.381       .  A
C413        H416   1.082       .  S
C414        C415   1.378       .  A
C414        C444   1.439       .  S
C415        H417   1.082       .  S
C418        C420   1.538   1_455  S
C418        C422   1.538       .  S
C418        C421   1.545       .  S
C419        C423   1.529   1_455  S
C419        C425   1.529       .  S
C419        C424   1.534       .  S
C419        C493   1.470       .  S
C420        C423   1.392       .  A
C421        C432   1.379   1_545  A
C421        C424   1.395       .  A
C422        C425   1.393       .  A
C423        C426   1.375       .  A
C424        C430   1.379       .  A
C425        C433   1.375       .  A
C426        H439   1.083       .  S
N427        C428   1.357       .  A
N427        C441   1.403       .  S
C428        H429   1.083       .  S
C430        N431   1.363   1_445  A
C430        H440   1.081       .  S
N431        C432   1.362   1_655  A
N431        C454   1.446       .  S
C432        H438   1.082   1_455  S
C433        H435   1.083       .  S
N434        C436   1.357       .  A
N434        C445   1.403       .  S
C436        H437   1.083       .  S
C441        C442   1.207       .  T
C442        C443   1.413       .  S
C443        C444   1.207       .  T
C445        C446   1.207       .  T
C446        C447   1.413       .  S
C447        C448   1.207       .  T
C449        C450   1.350   1_545  D
C449        H451   1.087       .  S
C450        H452   1.083       .  S
C453        C454   1.350       .  D
C453        H455   1.083   1_655  S
C454        H456   1.087       .  S
C457        C458   1.206       .  T
C458        C459   1.412       .  S
C459        C460   1.206       .  T
C461        C462   1.206       .  T
C462        C463   1.412       .  S
C463        C464   1.206       .  T
C465        C466   1.207       .  T
C466        C467   1.414       .  S
C467        C468   1.207       .  T
C469        C470   1.207       .  T
C470        C471   1.414       .  S
C471        C472   1.207       .  T
C473        C474   1.206       .  T
C474        C475   1.412       .  S
C475        C476   1.206       .  T
C477        C478   1.207       .  T
C478        C479   1.413       .  S
C479        C480   1.206       .  T
C481        C482   1.207       .  T
C482        C483   1.414       .  S
C483        C484   1.207       .  T
C485        C486   1.350       .  D
C485        H487   1.087       .  S
C486        H488   1.083       .  S
C489        C490   1.350       .  D
C489        H491   1.087       .  S
C490        H492   1.083       .  S
C493        C494   1.207       .  T
C494        C495   1.414       .  S
C495        C496   1.207       .  T
C497        C498   1.206       .  T
C498        C499   1.412       .  S
C499        C500   1.206       .  T
C501        C502   1.206       .  T
C502        C503   1.413       .  S
C503        C504   1.206       .  T
