geometry optimzed in LAMMPS
_audit_creation_date              2020-11-30 
_audit_creation_method            'lammps2cif' 
_symmetry_space_group_name_H-M    'P1' 
_symmetry_Int_Tables_number       1 
_symmetry_cell_setting            triclinic 
loop_ 
_symmetry_equiv_pos_as_xyz 
  x,y,z 
_cell_length_a                    44.05965722420373 
_cell_length_b                    44.06726811405453 
_cell_length_c                    31.174886233579528 
_cell_angle_alpha                 89.98994991612669 
_cell_angle_beta                  90.01680385521048 
_cell_angle_gamma                 120.20958807807654 
loop_ 
_atom_site_label 
_atom_site_type_symbol 
_atom_site_fract_x 
_atom_site_fract_y 
_atom_site_fract_z 
_atom_site_charge 
Zn1        Zn  0.12429355  0.29155365  0.18788738     1.49720
Zn2        Zn  0.16745190  0.37573727  0.18760349     1.49360
Zn3        Zn  0.20847920  0.33289102  0.18748660     1.49110
Zn4        Zn  0.16652533  0.33329519  0.10370613     1.49480
O5          O  0.16667399  0.33335235  0.16666410    -1.79830
O6          O  0.09454471  0.30481218  0.22362021    -0.70460
O7          O  0.21049705  0.40558685  0.22346702    -0.70280
O8          O  0.19529381  0.29002144  0.22356841    -0.69800
O9          O  0.12497907  0.36326071  0.22398549    -0.70480
O10         O  0.13684272  0.26172526  0.22452096    -0.70080
O11         O  0.23868422  0.37550505  0.22376511    -0.70660
O12         O  0.20952387  0.33397930  0.08013871    -0.70050
O13         O  0.16712865  0.40539927  0.13862989    -0.70810
O14         O  0.23826614  0.33298950  0.13837482    -0.70200
O15         O  0.16575420  0.37560107  0.08029851    -0.70660
O16         O  0.12401022  0.29006063  0.08055553    -0.70570
O17         O  0.09446520  0.26132496  0.13897634    -0.70360
C18         C  0.09844420  0.33425936  0.23510398     0.81430
C19         C  0.23613800  0.40188351  0.23497002     0.81920
C20         C  0.16591142  0.26440985  0.23545648     0.80880
C21         C  0.23534640  0.33361358  0.09784818     0.81250
C22         C  0.16619159  0.40178214  0.09810648     0.82390
C23         C  0.09789583  0.26412736  0.09842941     0.81440
C24         C  0.46801910  0.49980386  0.00013562     0.06580
C25         C  0.00018160  0.03189128  0.33328687     0.06580
C26         C  0.03221029  0.03198046  0.33330646     0.06680
C27         C  0.03212957  0.99996237  0.33335698     0.06580
C28         C  0.49996260  0.46787549  0.99987793     0.06580
C29         C  0.46792965  0.46777964  0.00000708     0.06580
C30         C  0.34006080  0.02466833  0.02502914     0.07420
C31         C  0.31171161  0.50004568  0.00027370    -0.08730
C32         C  0.31524378  0.47536088  0.30903361     0.04920
C33         C  0.34698778  0.47527995  0.30930498    -0.07250
C34         C  0.37524028  0.49989854  0.00063503     0.07420
C35         C  0.37182767  0.02460373  0.02513157    -0.06670
H36         H  0.28712488  0.50010848  0.00011380     0.13010
H37         H  0.34971311  0.45615139  0.29033854     0.10540
H38         H  0.39376285  0.04370874  0.04418893     0.10390
C39         C  0.33929643  0.31432186  0.30904142     0.07420
C40         C  0.31090387  0.31074946  0.00001525    -0.08730
C41         C  0.31447572  0.33914207  0.02431571     0.04920
C42         C  0.34637675  0.37103724  0.02422687    -0.07250
C43         C  0.37473192  0.37457948  0.00000207     0.07420
C44         C  0.37119110  0.34622440  0.30911662    -0.06670
H45         H  0.28620549  0.28605041  0.00002067     0.13010
H46         H  0.34913531  0.39302287  0.04297254     0.10540
H47         H  0.39317735  0.34898372  0.29036651     0.10390
C48         C  0.02485480  0.33990005  0.30838437     0.07420
C49         C  0.02478569  0.37165703  0.30828646    -0.08730
C50         C  0.00008439  0.37512715  0.33279384     0.04920
C51         C  0.47547326  0.34688321  0.02413065    -0.07250
C52         C  0.47555917  0.31514687  0.02439635     0.07420
C53         C  0.50024189  0.31161535  0.33314616    -0.06670
H54         H  0.04388064  0.39358435  0.28921892     0.13010
H55         H  0.45634304  0.34960703  0.04309964     0.10540
H56         H  0.50030507  0.28703330  0.33329655     0.10390
C57         C  0.47521774  0.15984058  0.30863594     0.07420
C58         C  0.47532025  0.12809997  0.30852361    -0.08730
C59         C  0.00008758  0.12466837  0.33296856     0.04920
C60         C  0.02474034  0.15294515  0.02424913    -0.07250
C61         C  0.02462337  0.18466966  0.02452126     0.07420
C62         C  0.99986925  0.18814942  0.33333759    -0.06670
H63         H  0.45620150  0.10615629  0.28949298     0.13010
H64         H  0.04391842  0.15025391  0.04317273     0.10540
H65         H  0.99978218  0.21271950  0.33349058     0.10390
C66         C  0.16004482  0.47502807  0.02462992     0.07420
C67         C  0.12829393  0.47512041  0.02474068    -0.08730
C68         C  0.12485099  0.49987716  0.00030171     0.04920
C69         C  0.15321201  0.02453313  0.30903385    -0.07250
C70         C  0.18494818  0.02442830  0.30876229     0.07420
C71         C  0.18843910  0.99968100  0.99993435    -0.06670
H72         H  0.10635083  0.45600242  0.04376840     0.13010
H73         H  0.15051374  0.04370736  0.29012086     0.10540
H74         H  0.21301873  0.99960373  0.99978411     0.10390
C75         C  0.18558810  0.16066185  0.02434213     0.07420
C76         C  0.18915646  0.18904099  0.33332543    -0.08730
C77         C  0.16076221  0.18543036  0.30895468     0.04920
C78         C  0.12888403  0.15351667  0.30902417    -0.07250
C79         C  0.12535919  0.12518725  0.33328513     0.07420
C80         C  0.15370344  0.12875753  0.02423291    -0.06670
H81         H  0.21384485  0.21374917  0.33333955     0.13010
H82         H  0.10689596  0.15072847  0.29023492     0.10540
H83         H  0.15095017  0.10678243  0.04300678     0.10390
Zn84       Zn  0.37590675  0.16731868  0.14569446     1.49720
Zn85       Zn  0.29171422  0.12418330  0.14540743     1.49360
Zn86       Zn  0.33348872  0.16640852  0.22960967     1.49110
Zn87       Zn  0.33306380  0.20835580  0.14586322     1.49480
O88         O  0.33352523  0.16655124  0.16665014    -1.79830
O89         O  0.36341872  0.12484323  0.10931318    -0.70460
O90         O  0.26151027  0.09435220  0.19432101    -0.70280
O91         O  0.37580750  0.16563724  0.25300249    -0.69800
O92         O  0.30496115  0.09442212  0.10966794    -0.70480
O93         O  0.40557411  0.16697294  0.19465862    -0.70080
O94         O  0.29027721  0.12387932  0.25274706    -0.70660
O95         O  0.33314651  0.23812209  0.19498727    -0.70050
O96         O  0.26187712  0.13674667  0.10879095    -0.70810
O97         O  0.33415156  0.20938555  0.25321014    -0.70200
O98         O  0.29019804  0.19518879  0.10976629    -0.70660
O99         O  0.37569130  0.23856843  0.10961894    -0.70570
O100        O  0.40576117  0.21036741  0.10985333    -0.70360
C101        C  0.33441106  0.09830878  0.09819823     0.81430
C102        C  0.26434091  0.09776549  0.23486943     0.81920
C103        C  0.40197251  0.16604398  0.23518317     0.80880
C104        C  0.33377323  0.23519989  0.23551223     0.81250
C105        C  0.26457497  0.16581789  0.09786659     0.82390
C106        C  0.40206717  0.23601894  0.09839373     0.81440
C107        C  0.23772415  0.16538952  0.07140493    -0.08980
C108        C  0.21446195  0.16401636  0.04960713    -0.10540
C109        C  0.21378579  0.04977196  0.28318856    -0.08980
C110        C  0.23719828  0.07147556  0.26128312    -0.10540
C111        C  0.44976498  0.16320094  0.28330437    -0.08980
C112        C  0.42809482  0.16501031  0.26158635    -0.10540
C113        C  0.45023839  0.28635437  0.05003047    -0.08980
C114        C  0.42848586  0.26303119  0.07198349    -0.10540
C115        C  0.33440493  0.26209372  0.26206408    -0.08980
C116        C  0.33592379  0.28542498  0.28383510    -0.10540
C117        C  0.33505844  0.07189078  0.07201355    -0.08980
C118        C  0.33670119  0.05010731  0.05036174    -0.10540
C119        C  0.43491310  0.43476452  0.00000397    -0.08980
C120        C  0.40747567  0.40732438  0.99999974    -0.10540
C121        C  0.40782527  0.49984522  0.00065980    -0.08980
C122        C  0.43511945  0.49976612  0.00045403    -0.10540
C123        C  0.49993070  0.43498464  0.33292867    -0.08980
C124        C  0.00001711  0.40769903  0.33275270    -0.10540
C125        C  0.09263919  0.09243529  0.33327217    -0.08980
C126        C  0.06521727  0.06498964  0.33328132    -0.10540
C127        C  0.09227027  0.49994890  0.00035522    -0.08980
C128        C  0.06504109  0.00000849  0.00022541    -0.10540
C129        C  0.00016377  0.09209543  0.33292385    -0.08980
C130        C  0.00022550  0.06479403  0.33306722    -0.10540
C131        C  0.07163302  0.23694947  0.07201573    -0.08980
C132        C  0.04995410  0.21351128  0.05010950    -0.10540
C133        C  0.16546435  0.23755387  0.26191330    -0.08980
C134        C  0.16408443  0.21428955  0.28370137    -0.10540
C135        C  0.05027678  0.33654029  0.28301847    -0.08980
C136        C  0.07204531  0.33490728  0.26132454    -0.10540
C137        C  0.26313882  0.42829360  0.26140962    -0.08980
C138        C  0.28645163  0.45004239  0.28338612    -0.10540
C139        C  0.16519215  0.42790937  0.07169033    -0.08980
C140        C  0.16340819  0.44958350  0.04996203    -0.10540
C141        C  0.26224941  0.33425167  0.07130485    -0.08980
C142        C  0.28558050  0.33576986  0.04953028    -0.10540
Zn143      Zn  0.12429357  0.29155367  0.52122075     1.49720
Zn144      Zn  0.16745192  0.37573728  0.52093684     1.49360
Zn145      Zn  0.20847921  0.33289103  0.52081995     1.49110
Zn146      Zn  0.16652537  0.33329522  0.43703949     1.49480
O147        O  0.16667401  0.33335237  0.49999746    -1.79830
O148        O  0.09454472  0.30481219  0.55695357    -0.70460
O149        O  0.21049706  0.40558685  0.55680037    -0.70280
O150        O  0.19529381  0.29002144  0.55690176    -0.69800
O151        O  0.12497908  0.36326072  0.55731884    -0.70480
O152        O  0.13684272  0.26172527  0.55785432    -0.70080
O153        O  0.23868422  0.37550505  0.55709846    -0.70660
O154        O  0.20952389  0.33397932  0.41347206    -0.70050
O155        O  0.16712866  0.40539928  0.47196324    -0.70810
O156        O  0.23826615  0.33298950  0.47170817    -0.70200
O157        O  0.16575422  0.37560109  0.41363187    -0.70660
O158        O  0.12401026  0.29006069  0.41388891    -0.70570
O159        O  0.09446523  0.26132502  0.47230971    -0.70360
C160        C  0.09844421  0.33425937  0.56843733     0.81430
C161        C  0.23613800  0.40188351  0.56830337     0.81920
C162        C  0.16591142  0.26440985  0.56878983     0.80880
C163        C  0.23534642  0.33361359  0.43118153     0.81250
C164        C  0.16619161  0.40178215  0.43143983     0.82390
C165        C  0.09789586  0.26412744  0.43176278     0.81440
C166        C  0.46801910  0.49980386  0.33346894     0.06580
C167        C  0.00018159  0.03189127  0.66662021     0.06580
C168        C  0.03221028  0.03198045  0.66663979     0.06680
C169        C  0.03212956  0.99996236  0.66669031     0.06580
C170        C  0.49996259  0.46787549  0.33321125     0.06580
C171        C  0.46792965  0.46777964  0.33334040     0.06580
C172        C  0.34006149  0.02466838  0.35836251     0.07420
C173        C  0.31171162  0.50004569  0.33360701    -0.08730
C174        C  0.31524378  0.47536088  0.64236698     0.04920
C175        C  0.34698778  0.47527996  0.64263835    -0.07250
C176        C  0.37524029  0.49989854  0.33396835     0.07420
C177        C  0.37182833  0.02460361  0.35846491    -0.06670
H178        H  0.28712489  0.50010849  0.33344711     0.13010
H179        H  0.34971310  0.45615139  0.62367191     0.10540
H180        H  0.39376353  0.04370854  0.37752230     0.10390
C181        C  0.33929643  0.31432186  0.64237475     0.07420
C182        C  0.31090388  0.31074946  0.33334859    -0.08730
C183        C  0.31447572  0.33914207  0.35764905     0.04920
C184        C  0.34637675  0.37103724  0.35756020    -0.07250
C185        C  0.37473192  0.37457948  0.33333540     0.07420
C186        C  0.37119110  0.34622441  0.64244996    -0.06670
H187        H  0.28620549  0.28605041  0.33335401     0.13010
H188        H  0.34913531  0.39302287  0.37630588     0.10540
H189        H  0.39317735  0.34898372  0.62369985     0.10390
C190        C  0.02485480  0.33990006  0.64171772     0.07420
C191        C  0.02478569  0.37165704  0.64161980    -0.08730
C192        C  0.00008439  0.37512715  0.66612719     0.04920
C193        C  0.47547327  0.34688321  0.35746397    -0.07250
C194        C  0.47555918  0.31514687  0.35772967     0.07420
C195        C  0.50024188  0.31161534  0.66647951    -0.06670
H196        H  0.04388064  0.39358435  0.62255227     0.13010
H197        H  0.45634305  0.34960703  0.37643296     0.10540
H198        H  0.50030505  0.28703329  0.66662989     0.10390
C199        C  0.47521774  0.15984059  0.64196927     0.07420
C200        C  0.47532025  0.12809997  0.64185694    -0.08730
C201        C  0.00008757  0.12466837  0.66630189     0.04920
C202        C  0.02474034  0.15294531  0.35758248    -0.07250
C203        C  0.02462337  0.18466982  0.35785460     0.07420
C204        C  0.99986925  0.18814942  0.66667091    -0.06670
H205        H  0.45620151  0.10615629  0.62282631     0.13010
H206        H  0.04391842  0.15025407  0.37650607     0.10540
H207        H  0.99978218  0.21271951  0.66682390     0.10390
C208        C  0.16004482  0.47502807  0.35796327     0.07420
C209        C  0.12829393  0.47512040  0.35807403    -0.08730
C210        C  0.12485098  0.49987716  0.33363506     0.04920
C211        C  0.15321201  0.02453313  0.64236717    -0.07250
C212        C  0.18494818  0.02442831  0.64209561     0.07420
C213        C  0.18843964  0.99968082  0.33326768    -0.06670
H214        H  0.10635083  0.45600242  0.37710175     0.13010
H215        H  0.15051374  0.04370737  0.62345419     0.10540
H216        H  0.21301917  0.99960337  0.33311744     0.10390
C217        C  0.18558870  0.16066245  0.35767542     0.07420
C218        C  0.18915645  0.18904099  0.66665877    -0.08730
C219        C  0.16076220  0.18543036  0.64228802     0.04920
C220        C  0.12888402  0.15351667  0.64235752    -0.07250
C221        C  0.12535918  0.12518725  0.66661848     0.07420
C222        C  0.15370401  0.12875821  0.35756623    -0.06670
H223        H  0.21384485  0.21374916  0.66667289     0.13010
H224        H  0.10689595  0.15072847  0.62356826     0.10540
H225        H  0.15095064  0.10678307  0.37634011     0.10390
Zn226      Zn  0.37590676  0.16731866  0.47902776     1.49720
Zn227      Zn  0.29171426  0.12418324  0.47874073     1.49360
Zn228      Zn  0.33348873  0.16640852  0.56294300     1.49110
Zn229      Zn  0.33306388  0.20835581  0.47919662     1.49480
O230        O  0.33352526  0.16655121  0.49998348    -1.79830
O231        O  0.36341875  0.12484320  0.44264647    -0.70460
O232        O  0.26151030  0.09435219  0.52765433    -0.70280
O233        O  0.37580751  0.16563724  0.58633582    -0.69800
O234        O  0.30496119  0.09442199  0.44300116    -0.70480
O235        O  0.40557411  0.16697294  0.52799194    -0.70080
O236        O  0.29027721  0.12387933  0.58608039    -0.70660
O237        O  0.33314655  0.23812211  0.52832061    -0.70050
O238        O  0.26187722  0.13674669  0.44212431    -0.70810
O239        O  0.33415156  0.20938555  0.58654349    -0.70200
O240        O  0.29019820  0.19518883  0.44309975    -0.70660
O241        O  0.37569134  0.23856844  0.44295230    -0.70570
O242        O  0.40576118  0.21036741  0.44318664    -0.70360
C243        C  0.33441114  0.09830871  0.43153148     0.81430
C244        C  0.26434092  0.09776549  0.56820275     0.81920
C245        C  0.40197251  0.16604399  0.56851650     0.80880
C246        C  0.33377324  0.23519990  0.56884558     0.81250
C247        C  0.26457514  0.16581795  0.43120001     0.82390
C248        C  0.40206719  0.23601894  0.43172706     0.81440
C249        C  0.23772444  0.16538971  0.40473832    -0.08980
C250        C  0.21446242  0.16401680  0.38294044    -0.10540
C251        C  0.21378579  0.04977197  0.61652188    -0.08980
C252        C  0.23719828  0.07147557  0.59461644    -0.10540
C253        C  0.44976499  0.16320094  0.61663770    -0.08980
C254        C  0.42809483  0.16501032  0.59491967    -0.10540
C255        C  0.45023840  0.28635437  0.38336379    -0.08980
C256        C  0.42848587  0.26303119  0.40531681    -0.10540
C257        C  0.33440493  0.26209372  0.59539742    -0.08980
C258        C  0.33592379  0.28542498  0.61716843    -0.10540
C259        C  0.33505870  0.07189072  0.40534684    -0.08980
C260        C  0.33670179  0.05010736  0.38369512    -0.10540
C261        C  0.43491310  0.43476452  0.33333730    -0.08980
C262        C  0.40747567  0.40732438  0.33333307    -0.10540
C263        C  0.40782527  0.49984522  0.33399312    -0.08980
C264        C  0.43511945  0.49976612  0.33378735    -0.10540
C265        C  0.49993070  0.43498464  0.66626202    -0.08980
C266        C  0.00001711  0.40769903  0.66608604    -0.10540
C267        C  0.09263918  0.09243529  0.66660551    -0.08980
C268        C  0.06521726  0.06498964  0.66661465    -0.10540
C269        C  0.09227027  0.49994889  0.33368856    -0.08980
C270        C  0.06504313  0.00001065  0.33355894    -0.10540
C271        C  0.00016376  0.09209542  0.66625718    -0.08980
C272        C  0.00022548  0.06479402  0.66640055    -0.10540
C273        C  0.07163302  0.23694960  0.40534909    -0.08980
C274        C  0.04995409  0.21351145  0.38344284    -0.10540
C275        C  0.16546435  0.23755387  0.59524665    -0.08980
C276        C  0.16408443  0.21428955  0.61703472    -0.10540
C277        C  0.05027679  0.33654030  0.61635181    -0.08980
C278        C  0.07204531  0.33490729  0.59465788    -0.10540
C279        C  0.26313882  0.42829360  0.59474298    -0.08980
C280        C  0.28645163  0.45004239  0.61671949    -0.10540
C281        C  0.16519216  0.42790938  0.40502368    -0.08980
C282        C  0.16340820  0.44958350  0.38329538    -0.10540
C283        C  0.26224941  0.33425167  0.40463820    -0.08980
C284        C  0.28558051  0.33576986  0.38286362    -0.10540
Zn285      Zn  0.12429357  0.29155364  0.85455411     1.49720
Zn286      Zn  0.16745191  0.37573727  0.85427017     1.49360
Zn287      Zn  0.20847918  0.33289094  0.85415336     1.49110
Zn288      Zn  0.16652537  0.33329522  0.77037284     1.49480
O289        O  0.16667401  0.33335234  0.83333082    -1.79830
O290        O  0.09454473  0.30481218  0.89028691    -0.70460
O291        O  0.21049706  0.40558684  0.89013369    -0.70280
O292        O  0.19529376  0.29002125  0.89023523    -0.69800
O293        O  0.12497908  0.36326071  0.89065217    -0.70480
O294        O  0.13684269  0.26172518  0.89118770    -0.70080
O295        O  0.23868420  0.37550502  0.89043183    -0.70660
O296        O  0.20952388  0.33397932  0.74680540    -0.70050
O297        O  0.16712865  0.40539928  0.80529657    -0.70810
O298        O  0.23826613  0.33298947  0.80504151    -0.70200
O299        O  0.16575422  0.37560109  0.74696520    -0.70660
O300        O  0.12401026  0.29006070  0.74722224    -0.70570
O301        O  0.09446523  0.26132501  0.80564305    -0.70360
C302        C  0.09844421  0.33425937  0.90177066     0.81430
C303        C  0.23613799  0.40188350  0.90163670     0.81920
C304        C  0.16591133  0.26440967  0.90212325     0.80880
C305        C  0.23534641  0.33361358  0.76451488     0.81250
C306        C  0.16619160  0.40178215  0.76477316     0.82390
C307        C  0.09789586  0.26412744  0.76509611     0.81440
C308        C  0.46801911  0.49980387  0.66680229     0.06580
C309        C  0.00018095  0.03189082  0.99995386     0.06580
C310        C  0.03220925  0.03197927  0.99997331     0.06680
C311        C  0.03212765  0.99996070  0.00002380     0.06580
C312        C  0.49996260  0.46787550  0.66654460     0.06580
C313        C  0.46792965  0.46777965  0.66667375     0.06580
C314        C  0.34006143  0.02466833  0.69169581     0.07420
C315        C  0.31171162  0.50004569  0.66694039    -0.08730
C316        C  0.31524378  0.47536087  0.97570029     0.04920
C317        C  0.34698778  0.47527995  0.97597166    -0.07250
C318        C  0.37524028  0.49989855  0.66730172     0.07420
C319        C  0.37182828  0.02460357  0.69179821    -0.06670
H320        H  0.28712488  0.50010849  0.66678048     0.13010
H321        H  0.34971310  0.45615138  0.95700522     0.10540
H322        H  0.39376347  0.04370851  0.71085560     0.10390
C323        C  0.33929643  0.31432186  0.97570809     0.07420
C324        C  0.31090387  0.31074947  0.66668192    -0.08730
C325        C  0.31447572  0.33914208  0.69098238     0.04920
C326        C  0.34637675  0.37103724  0.69089353    -0.07250
C327        C  0.37473192  0.37457948  0.66666874     0.07420
C328        C  0.37119110  0.34622440  0.97578329    -0.06670
H329        H  0.28620549  0.28605042  0.66668734     0.13010
H330        H  0.34913531  0.39302287  0.70963921     0.10540
H331        H  0.39317735  0.34898372  0.95703318     0.10390
C332        C  0.02485480  0.33990006  0.97505105     0.07420
C333        C  0.02478569  0.37165704  0.97495313    -0.08730
C334        C  0.00008439  0.37512715  0.99946052     0.04920
C335        C  0.47547326  0.34688321  0.69079732    -0.07250
C336        C  0.47555917  0.31514687  0.69106302     0.07420
C337        C  0.50024188  0.31161534  0.99981284    -0.06670
H338        H  0.04388064  0.39358435  0.95588560     0.13010
H339        H  0.45634304  0.34960703  0.70976631     0.10540
H340        H  0.50030506  0.28703329  0.99996322     0.10390
C341        C  0.47521773  0.15984042  0.97530260     0.07420
C342        C  0.47532025  0.12809980  0.97519027    -0.08730
C343        C  0.00008760  0.12466823  0.99963520     0.04920
C344        C  0.02474033  0.15294531  0.69091581    -0.07250
C345        C  0.02462337  0.18466982  0.69118792     0.07420
C346        C  0.99986925  0.18814925  0.00000424    -0.06670
H347        H  0.45620150  0.10615612  0.95615965     0.13010
H348        H  0.04391842  0.15025407  0.70983940     0.10540
H349        H  0.99978219  0.21271934  0.00015723     0.10390
C350        C  0.16004482  0.47502808  0.69129660     0.07420
C351        C  0.12829393  0.47512041  0.69140736    -0.08730
C352        C  0.12485098  0.49987716  0.66696839     0.04920
C353        C  0.15321105  0.02453288  0.97570049    -0.07250
C354        C  0.18494746  0.02442837  0.97542896     0.07420
C355        C  0.18843964  0.99968082  0.66660100    -0.06670
H356        H  0.10635083  0.45600243  0.71043508     0.13010
H357        H  0.15051260  0.04370697  0.95678744     0.10540
H358        H  0.21301917  0.99960337  0.66645076     0.10390
C359        C  0.18558869  0.16066244  0.69100876     0.07420
C360        C  0.18915578  0.18904035  0.99999212    -0.08730
C361        C  0.16076152  0.18542968  0.97562136     0.04920
C362        C  0.12888334  0.15351588  0.97569084    -0.07250
C363        C  0.12535853  0.12518639  0.99995176     0.07420
C364        C  0.15370400  0.12875821  0.69089957    -0.06670
H365        H  0.21384415  0.21374855  0.00000623     0.13010
H366        H  0.10689527  0.15072764  0.95690155     0.10540
H367        H  0.15095063  0.10678306  0.70967345     0.10390
Zn368      Zn  0.37590676  0.16731865  0.81236113     1.49720
Zn369      Zn  0.29171423  0.12418319  0.81207413     1.49360
Zn370      Zn  0.33348868  0.16640844  0.89627641     1.49110
Zn371      Zn  0.33306387  0.20835579  0.81252998     1.49480
O372        O  0.33352523  0.16655117  0.83331686    -1.79830
O373        O  0.36341874  0.12484318  0.77597982    -0.70460
O374        O  0.26151018  0.09435211  0.86098775    -0.70280
O375        O  0.37580751  0.16563719  0.91966920    -0.69800
O376        O  0.30496118  0.09442197  0.77633452    -0.70480
O377        O  0.40557412  0.16697292  0.86132531    -0.70080
O378        O  0.29027707  0.12387921  0.91941383    -0.70660
O379        O  0.33314654  0.23812208  0.86165396    -0.70050
O380        O  0.26187721  0.13674667  0.77545767    -0.70810
O381        O  0.33415155  0.20938552  0.91987684    -0.70200
O382        O  0.29019819  0.19518881  0.77643310    -0.70660
O383        O  0.37569132  0.23856843  0.77628564    -0.70570
O384        O  0.40576118  0.21036740  0.77652000    -0.70360
C385        C  0.33441113  0.09830868  0.76486482     0.81430
C386        C  0.26434073  0.09776539  0.90153619     0.81920
C387        C  0.40197252  0.16604394  0.90184987     0.80880
C388        C  0.33377323  0.23519988  0.90217893     0.81250
C389        C  0.26457513  0.16581793  0.76453336     0.82390
C390        C  0.40206718  0.23601893  0.76506041     0.81440
C391        C  0.23772443  0.16538970  0.73807167    -0.08980
C392        C  0.21446241  0.16401679  0.71627379    -0.10540
C393        C  0.21378514  0.04977208  0.94985521    -0.08980
C394        C  0.23719788  0.07147556  0.92794986    -0.10540
C395        C  0.44976498  0.16320080  0.94997104    -0.08980
C396        C  0.42809484  0.16501024  0.92825303    -0.10540
C397        C  0.45023838  0.28635437  0.71669713    -0.08980
C398        C  0.42848586  0.26303118  0.73865016    -0.10540
C399        C  0.33440493  0.26209371  0.92873077    -0.08980
C400        C  0.33592380  0.28542497  0.95050177    -0.10540
C401        C  0.33505867  0.07189070  0.73868016    -0.08980
C402        C  0.33670174  0.05010732  0.71702842    -0.10540
C403        C  0.43491310  0.43476453  0.66667064    -0.08980
C404        C  0.40747567  0.40732438  0.66666641    -0.10540
C405        C  0.40782527  0.49984523  0.66732648    -0.08980
C406        C  0.43511945  0.49976613  0.66712071    -0.10540
C407        C  0.49993070  0.43498464  0.99959535    -0.08980
C408        C  0.00001711  0.40769903  0.99941938    -0.10540
C409        C  0.09263856  0.09243413  0.99993867    -0.08980
C410        C  0.06521666  0.06498830  0.99994793    -0.10540
C411        C  0.09227027  0.49994890  0.66702189    -0.08980
C412        C  0.06504312  0.00001064  0.66689227    -0.10540
C413        C  0.00016386  0.09209532  0.99959050    -0.08980
C414        C  0.00022551  0.06479390  0.99973401    -0.10540
C415        C  0.07163302  0.23694960  0.73868242    -0.08980
C416        C  0.04995409  0.21351145  0.71677617    -0.10540
C417        C  0.16546410  0.23755352  0.92858003    -0.08980
C418        C  0.16408385  0.21428897  0.95036803    -0.10540
C419        C  0.05027678  0.33654029  0.94968514    -0.08980
C420        C  0.07204531  0.33490729  0.92799121    -0.10540
C421        C  0.26313882  0.42829359  0.92807630    -0.08980
C422        C  0.28645162  0.45004238  0.95005281    -0.10540
C423        C  0.16519216  0.42790938  0.73835701    -0.08980
C424        C  0.16340820  0.44958351  0.71662871    -0.10540
C425        C  0.26224941  0.33425168  0.73797154    -0.08980
C426        C  0.28558050  0.33576987  0.71619695    -0.10540
Zn427      Zn  0.12430666  0.79153730  0.18788725     1.49720
Zn428      Zn  0.16746338  0.87572229  0.18762092     1.49360
Zn429      Zn  0.20849768  0.83288498  0.18750060     1.49110
Zn430      Zn  0.16654509  0.83327464  0.10371828     1.49480
O431        O  0.16669041  0.83333963  0.16667644    -1.79830
O432        O  0.09455318  0.80478498  0.22361639    -0.70460
O433        O  0.21050987  0.90558042  0.22349804    -0.70280
O434        O  0.19530469  0.79000956  0.22357986    -0.69800
O435        O  0.12497302  0.86323404  0.22398283    -0.70480
O436        O  0.13685237  0.76170747  0.22451542    -0.70080
O437        O  0.23869947  0.87550148  0.22378241    -0.70660
O438        O  0.20954341  0.83396044  0.08014905    -0.70050
O439        O  0.16715617  0.90538305  0.13863608    -0.70810
O440        O  0.23829778  0.83299955  0.13838729    -0.70200
O441        O  0.16579180  0.87558344  0.08030966    -0.70660
O442        O  0.12402406  0.79005186  0.08056078    -0.70570
O443        O  0.09447358  0.76131614  0.13897765    -0.70360
C444        C  0.09844126  0.83422766  0.23509671     0.81430
C445        C  0.23615521  0.90187998  0.23499322     0.81920
C446        C  0.16592036  0.76439443  0.23545864     0.80880
C447        C  0.23537656  0.83361650  0.09785955     0.81250
C448        C  0.16623262  0.90176724  0.09811277     0.82390
C449        C  0.09790407  0.76412287  0.09843151     0.81440
C450        C  0.46808953  0.99980490  0.00013512     0.06580
C451        C  0.00010841  0.53189102  0.33329619     0.06580
C452        C  0.03213572  0.53198024  0.33331614     0.06680
C453        C  0.03205289  0.49996177  0.33335571     0.06580
C454        C  0.50003480  0.96787523  0.99988966     0.06580
C455        C  0.46800092  0.96778062  0.00001667     0.06580
C456        C  0.34000531  0.52466724  0.02502872     0.07420
C457        C  0.31176754  0.00004492  0.00027463    -0.08730
C458        C  0.31529827  0.97535966  0.30903264     0.04920
C459        C  0.34704479  0.97528020  0.30930178    -0.07250
C460        C  0.37530021  0.99990020  0.00063151     0.07420
C461        C  0.37177008  0.52460189  0.02513341    -0.06670
H462        H  0.28718031  0.00010678  0.00011647     0.13010
H463        H  0.34976899  0.95615142  0.29033470     0.10540
H464        H  0.39370545  0.54370601  0.04419160     0.10390
C465        C  0.33932966  0.81434494  0.30903604     0.07420
C466        C  0.31093713  0.81078421  0.00000554    -0.08730
C467        C  0.31451859  0.83917917  0.02430997     0.04920
C468        C  0.34642734  0.87106807  0.02422424    -0.07250
C469        C  0.37478055  0.87459944  0.00000239     0.07420
C470        C  0.37123341  0.84623856  0.30911880    -0.06670
H471        H  0.28623414  0.78608983  0.00000976     0.13010
H472        H  0.34919476  0.89305541  0.04297383     0.10540
H473        H  0.39321737  0.84898778  0.29037256     0.10390
C474        C  0.02484373  0.83985004  0.30837616     0.07420
C475        C  0.02479785  0.87161809  0.30828951    -0.08730
C476        C  0.00011234  0.87510530  0.33280671     0.04920
C477        C  0.47549103  0.84686550  0.02414145    -0.07250
C478        C  0.47555296  0.81511689  0.02439564     0.07420
C479        C  0.50022150  0.81156897  0.33313557    -0.06670
H480        H  0.04390046  0.89354216  0.28922410     0.13010
H481        H  0.45637223  0.84960250  0.04311785     0.10540
H482        H  0.50026766  0.78697831  0.33327815     0.10390
C483        C  0.47520823  0.65987822  0.30863219     0.07420
C484        C  0.47529292  0.62812924  0.30852529    -0.08730
C485        C  0.00004983  0.62468479  0.33297390     0.04920
C486        C  0.02471159  0.65295794  0.02425093    -0.07250
C487        C  0.02461293  0.68469164  0.02451585     0.07420
C488        C  0.99986876  0.68818461  0.33332863    -0.06670
H489        H  0.45616610  0.60618768  0.28949864     0.13010
H490        H  0.04388148  0.65025624  0.04317861     0.10540
H491        H  0.99979415  0.71276104  0.33347807     0.10390
C492        C  0.16012706  0.97502541  0.02462374     0.07420
C493        C  0.12837559  0.97511705  0.02473484    -0.08730
C494        C  0.12493271  0.99987696  0.00030254     0.04920
C495        C  0.15312663  0.52452956  0.30902680    -0.07250
C496        C  0.18486305  0.52442564  0.30875647     0.07420
C497        C  0.18835498  0.49968101  0.99993497    -0.06670
H498        H  0.10643173  0.95599608  0.04375886     0.13010
H499        H  0.15042649  0.54370080  0.29010961     0.10540
H500        H  0.21293449  0.49960381  0.99978541     0.10390
C501        C  0.18554867  0.66061189  0.02433408     0.07420
C502        C  0.18912981  0.68899419  0.33331488    -0.08730
C503        C  0.16073841  0.68540032  0.30895390     0.04920
C504        C  0.12884817  0.65349909  0.30903497    -0.07250
C505        C  0.12530837  0.62516470  0.33329813     0.07420
C506        C  0.15365167  0.62871856  0.02423622    -0.06670
H507        H  0.21382677  0.71369384  0.33332106     0.13010
H508        H  0.10686218  0.65072448  0.29025302     0.10540
H509        H  0.15088716  0.60673998  0.04301224     0.10390
Zn510      Zn  0.37588105  0.66731302  0.14570721     1.49720
Zn511      Zn  0.29168710  0.62416863  0.14542500     1.49360
Zn512      Zn  0.33344734  0.66638892  0.22962070     1.49110
Zn513      Zn  0.33303408  0.70834019  0.14586210     1.49480
O514        O  0.33349524  0.66653911  0.16666163    -1.79830
O515        O  0.36339903  0.62484054  0.10932901    -0.70460
O516        O  0.26146664  0.59433623  0.19432793    -0.70280
O517        O  0.37576837  0.66562098  0.25301079    -0.69800
O518        O  0.30494109  0.59441636  0.10969803    -0.70480
O519        O  0.40555153  0.66698420  0.19466948    -0.70080
O520        O  0.29022196  0.62386254  0.25275870    -0.70660
O521        O  0.33312944  0.73811447  0.19498728    -0.70050
O522        O  0.26185568  0.63672034  0.10878941    -0.70810
O523        O  0.33412806  0.70937754  0.25321420    -0.70200
O524        O  0.29016220  0.69516205  0.10976153    -0.70660
O525        O  0.37566373  0.73855126  0.10961273    -0.70570
O526        O  0.40573770  0.71035546  0.10986416    -0.70360
C527        C  0.33438950  0.59830616  0.09821992     0.81430
C528        C  0.26428523  0.59775103  0.23487657     0.81920
C529        C  0.40194462  0.66604940  0.23519281     0.80880
C530        C  0.33376031  0.73519652  0.23551306     0.81250
C531        C  0.26454570  0.66578651  0.09785952     0.82390
C532        C  0.40204254  0.73600377  0.09839547     0.81440
C533        C  0.23769028  0.66534406  0.07139221    -0.08980
C534        C  0.21442148  0.66395831  0.04959545    -0.10540
C535        C  0.21370299  0.54976802  0.28318167    -0.08980
C536        C  0.23712658  0.57146737  0.26128305    -0.10540
C537        C  0.44975650  0.66324295  0.28330824    -0.08980
C538        C  0.42807701  0.66503798  0.26159533    -0.10540
C539        C  0.45022297  0.78633031  0.05002998    -0.08980
C540        C  0.42846384  0.76301319  0.07198418    -0.10540
C541        C  0.33441072  0.76210174  0.26206212    -0.08980
C542        C  0.33594453  0.78544175  0.28383020    -0.10540
C543        C  0.33502864  0.57189192  0.07202653    -0.08980
C544        C  0.33665277  0.55010555  0.05036378    -0.10540
C545        C  0.43498197  0.93476687  0.00001716    -0.08980
C546        C  0.40753600  0.90733437  0.00001005    -0.10540
C547        C  0.40788979  0.99984743  0.00065550    -0.08980
C548        C  0.43518649  0.99976838  0.00045107    -0.10540
C549        C  0.50000199  0.93498426  0.33294916    -0.08980
C550        C  0.00007137  0.90769015  0.33277462    -0.10540
C551        C  0.09257502  0.59242546  0.33329349    -0.08980
C552        C  0.06514451  0.56498814  0.33330030    -0.10540
C553        C  0.09234940  0.99994789  0.00035616    -0.08980
C554        C  0.06496389  0.50001023  0.00022417    -0.10540
C555        C  0.00010468  0.59210171  0.33293698    -0.08980
C556        C  0.00015370  0.56479421  0.33308153    -0.10540
C557        C  0.07163413  0.73695604  0.07201503    -0.08980
C558        C  0.04994940  0.71352662  0.05010533    -0.10540
C559        C  0.16546841  0.73753580  0.26191394    -0.08980
C560        C  0.16407624  0.71426557  0.28370078    -0.10540
C561        C  0.05025857  0.83648233  0.28300668    -0.08980
C562        C  0.07203299  0.83486171  0.26131156    -0.10540
C563        C  0.26316802  0.92829363  0.26142452    -0.08980
C564        C  0.28649732  0.95003967  0.28338953    -0.10540
C565        C  0.16525590  0.92790085  0.07168888    -0.08980
C566        C  0.16348720  0.94957936  0.04995389    -0.10540
C567        C  0.26229107  0.83427585  0.07131510    -0.08980
C568        C  0.28562685  0.83580901  0.04953401    -0.10540
Zn569      Zn  0.12430722  0.79153757  0.52122016     1.49720
Zn570      Zn  0.16746367  0.87572202  0.52095388     1.49360
Zn571      Zn  0.20849874  0.83288507  0.52083268     1.49110
Zn572      Zn  0.16654658  0.83327471  0.43705055     1.49480
O573        O  0.16669128  0.83333965  0.50000889    -1.79830
O574        O  0.09455347  0.80478503  0.55694945    -0.70460
O575        O  0.21051001  0.90558015  0.55683112    -0.70280
O576        O  0.19530522  0.79000928  0.55691196    -0.69800
O577        O  0.12497327  0.86323400  0.55731591    -0.70480
O578        O  0.13685287  0.76170783  0.55784855    -0.70080
O579        O  0.23869987  0.87550145  0.55711518    -0.70660
O580        O  0.20954608  0.83396189  0.41348071    -0.70050
O581        O  0.16715631  0.90538270  0.47196917    -0.70810
O582        O  0.23830007  0.83300104  0.47171929    -0.70200
O583        O  0.16579248  0.87558339  0.41364264    -0.70660
O584        O  0.12402510  0.79005158  0.41389359    -0.70570
O585        O  0.09447403  0.76131655  0.47231059    -0.70360
C586        C  0.09844149  0.83422766  0.56842982     0.81430
C587        C  0.23615540  0.90187979  0.56832626     0.81920
C588        C  0.16592083  0.76439452  0.56879139     0.80880
C589        C  0.23537957  0.83361865  0.43119146     0.81250
C590        C  0.16623289  0.90176697  0.43144585     0.82390
C591        C  0.09790471  0.76412298  0.43176445     0.81440
C592        C  0.46809057  0.99980492  0.33346812     0.06580
C593        C  0.00010841  0.53189102  0.66662952     0.06580
C594        C  0.03213572  0.53198025  0.66664947     0.06680
C595        C  0.03205289  0.49996178  0.66668905     0.06580
C596        C  0.50003734  0.96787664  0.33322281     0.06580
C597        C  0.46800319  0.96778122  0.33334988     0.06580
C598        C  0.34000532  0.52466725  0.35836203     0.07420
C599        C  0.31176820  0.00004505  0.33360798    -0.08730
C600        C  0.31529821  0.97535956  0.64236597     0.04920
C601        C  0.34704475  0.97528014  0.64263511    -0.07250
C602        C  0.37530078  0.99989995  0.33396484     0.07420
C603        C  0.37177008  0.52460190  0.35846673    -0.06670
H604        H  0.28718101  0.00010699  0.33344986     0.13010
H605        H  0.34976897  0.95615136  0.62366805     0.10540
H606        H  0.39370546  0.54370601  0.37752492     0.10390
C607        C  0.33932966  0.81434494  0.64236938     0.07420
C608        C  0.31094050  0.81078542  0.33333974    -0.08730
C609        C  0.31452373  0.83918035  0.35764586     0.04920
C610        C  0.34643413  0.87106746  0.35756276    -0.07250
C611        C  0.37478687  0.87459728  0.33334144     0.07420
C612        C  0.37123341  0.84623856  0.64245213    -0.06670
H613        H  0.28623601  0.78609255  0.33334124     0.13010
H614        H  0.34920274  0.89305515  0.37631265     0.10540
H615        H  0.39321737  0.84898778  0.62370590     0.10390
C616        C  0.02484382  0.83985003  0.64170943     0.07420
C617        C  0.02479791  0.87161808  0.64162281    -0.08730
C618        C  0.00011238  0.87510529  0.66614002     0.04920
C619        C  0.47549140  0.84686609  0.35747467    -0.07250
C620        C  0.47555289  0.81511721  0.35772886     0.07420
C621        C  0.50022153  0.81156894  0.66646885    -0.06670
H622        H  0.04390051  0.89354215  0.62255741     0.13010
H623        H  0.45637281  0.84960341  0.37645111     0.10540
H624        H  0.50026768  0.78697828  0.66661144     0.10390
C625        C  0.47520823  0.65987822  0.64196552     0.07420
C626        C  0.47529292  0.62812925  0.64185862    -0.08730
C627        C  0.00004982  0.62468479  0.66630723     0.04920
C628        C  0.02471163  0.65295799  0.35758432    -0.07250
C629        C  0.02461297  0.68469170  0.35784924     0.07420
C630        C  0.99986876  0.68818461  0.66666195    -0.06670
H631        H  0.45616610  0.60618768  0.62283196     0.13010
H632        H  0.04388153  0.65025630  0.37651199     0.10540
H633        H  0.99979414  0.71276105  0.66681139     0.10390
C634        C  0.16012748  0.97502532  0.35795703     0.07420
C635        C  0.12837619  0.97511730  0.35806818    -0.08730
C636        C  0.12493370  0.99987748  0.33363599     0.04920
C637        C  0.15312663  0.52452956  0.64236012    -0.07250
C638        C  0.18486305  0.52442564  0.64208980     0.07420
C639        C  0.18835498  0.49968102  0.33326832    -0.06670
H640        H  0.10643224  0.95599648  0.37709222     0.13010
H641        H  0.15042649  0.54370081  0.62344293     0.10540
H642        H  0.21293449  0.49960382  0.33311876     0.10390
C643        C  0.18554867  0.66061186  0.35766743     0.07420
C644        C  0.18912984  0.68899425  0.66664823    -0.08730
C645        C  0.16073844  0.68540041  0.64228726     0.04920
C646        C  0.12884819  0.65349916  0.64236831    -0.07250
C647        C  0.12530839  0.62516475  0.66663145     0.07420
C648        C  0.15365167  0.62871853  0.35756959    -0.06670
H649        H  0.21382680  0.71369389  0.66665442     0.13010
H650        H  0.10686221  0.65072455  0.62358636     0.10540
H651        H  0.15088717  0.60673995  0.37634562     0.10390
Zn652      Zn  0.37588111  0.66731309  0.47904047     1.49720
Zn653      Zn  0.29168711  0.62416864  0.47875832     1.49360
Zn654      Zn  0.33344735  0.66638893  0.56295401     1.49110
Zn655      Zn  0.33303409  0.70834020  0.47919542     1.49480
O656        O  0.33349527  0.66653913  0.49999493    -1.79830
O657        O  0.36339904  0.62484057  0.44266230    -0.70460
O658        O  0.26146665  0.59433624  0.52766125    -0.70280
O659        O  0.37576838  0.66562098  0.58634410    -0.69800
O660        O  0.30494111  0.59441637  0.44303135    -0.70480
O661        O  0.40555155  0.66698423  0.52800279    -0.70080
O662        O  0.29022196  0.62386255  0.58609202    -0.70660
O663        O  0.33312945  0.73811447  0.52832061    -0.70050
O664        O  0.26185569  0.63672035  0.44212274    -0.70810
O665        O  0.33412807  0.70937754  0.58654752    -0.70200
O666        O  0.29016222  0.69516205  0.44309485    -0.70660
O667        O  0.37566373  0.73855130  0.44294606    -0.70570
O668        O  0.40573779  0.71035561  0.44319738    -0.70360
C669        C  0.33438952  0.59830618  0.43155324     0.81430
C670        C  0.26428523  0.59775103  0.56820989     0.81920
C671        C  0.40194463  0.66604941  0.56852611     0.80880
C672        C  0.33376032  0.73519652  0.56884638     0.81250
C673        C  0.26454571  0.66578652  0.43119285     0.82390
C674        C  0.40204257  0.73600390  0.43172875     0.81440
C675        C  0.23769030  0.66534406  0.40472554    -0.08980
C676        C  0.21442149  0.66395830  0.38292879    -0.10540
C677        C  0.21370299  0.54976803  0.61651499    -0.08980
C678        C  0.23712658  0.57146737  0.59461637    -0.10540
C679        C  0.44975650  0.66324295  0.61664155    -0.08980
C680        C  0.42807702  0.66503798  0.59492864    -0.10540
C681        C  0.45022284  0.78633070  0.38336330    -0.08980
C682        C  0.42846382  0.76301344  0.40531749    -0.10540
C683        C  0.33441073  0.76210175  0.59539544    -0.08980
C684        C  0.33594453  0.78544175  0.61716352    -0.10540
C685        C  0.33502866  0.57189193  0.40535984    -0.08980
C686        C  0.33665278  0.55010556  0.38369710    -0.10540
C687        C  0.43498551  0.93476673  0.33335176    -0.08980
C688        C  0.40754158  0.90733249  0.33334668    -0.10540
C689        C  0.40789030  0.99984677  0.33398886    -0.08980
C690        C  0.43518697  0.99976750  0.33378426    -0.10540
C691        C  0.50000199  0.93498425  0.66628250    -0.08980
C692        C  0.00007139  0.90769014  0.66610794    -0.10540
C693        C  0.09257502  0.59242550  0.66662681    -0.08980
C694        C  0.06514452  0.56498817  0.66663362    -0.10540
C695        C  0.09235096  0.99994926  0.33368989    -0.08980
C696        C  0.06496389  0.50001023  0.33355750    -0.10540
C697        C  0.00010467  0.59210171  0.66627031    -0.08980
C698        C  0.00015369  0.56479421  0.66641486    -0.10540
C699        C  0.07163448  0.73695621  0.40534812    -0.08980
C700        C  0.04994953  0.71352675  0.38343862    -0.10540
C701        C  0.16546871  0.73753594  0.59524704    -0.08980
C702        C  0.16407634  0.71426569  0.61703407    -0.10540
C703        C  0.05025870  0.83648233  0.61633990    -0.08980
C704        C  0.07203316  0.83486172  0.59464474    -0.10540
C705        C  0.26316805  0.92829339  0.59475780    -0.08980
C706        C  0.28649726  0.95003949  0.61672289    -0.10540
C707        C  0.16525599  0.92790053  0.40502206    -0.08980
C708        C  0.16348736  0.94957912  0.38328715    -0.10540
C709        C  0.26229522  0.83427934  0.40464746    -0.08980
C710        C  0.28563173  0.83581226  0.38286785    -0.10540
Zn711      Zn  0.12430720  0.79153756  0.85455349     1.49720
Zn712      Zn  0.16746362  0.87572198  0.85428714     1.49360
Zn713      Zn  0.20849872  0.83288504  0.85416598     1.49110
Zn714      Zn  0.16654657  0.83327471  0.77038387     1.49480
O715        O  0.16669126  0.83333962  0.83334219    -1.79830
O716        O  0.09455343  0.80478504  0.89028281    -0.70460
O717        O  0.21050990  0.90558006  0.89016435    -0.70280
O718        O  0.19530522  0.79000928  0.89024528    -0.69800
O719        O  0.12497327  0.86323400  0.89064920    -0.70480
O720        O  0.13685287  0.76170783  0.89118188    -0.70080
O721        O  0.23869981  0.87550140  0.89044847    -0.70660
O722        O  0.20954608  0.83396189  0.74681403    -0.70050
O723        O  0.16715629  0.90538269  0.80530248    -0.70810
O724        O  0.23830007  0.83300102  0.80505261    -0.70200
O725        O  0.16579248  0.87558339  0.74697595    -0.70660
O726        O  0.12402509  0.79005158  0.74722691    -0.70570
O727        O  0.09447403  0.76131654  0.80564392    -0.70360
C728        C  0.09844147  0.83422770  0.90176316     0.81430
C729        C  0.23615529  0.90187972  0.90165952     0.81920
C730        C  0.16592083  0.76439451  0.90212472     0.80880
C731        C  0.23537957  0.83361864  0.76452479     0.81250
C732        C  0.16623288  0.90176697  0.76477916     0.82390
C733        C  0.09790470  0.76412297  0.76509777     0.81440
C734        C  0.46809057  0.99980492  0.66680146     0.06580
C735        C  0.00010840  0.53189101  0.99996286     0.06580
C736        C  0.03213572  0.53198024  0.99998281     0.06680
C737        C  0.03205289  0.49996177  0.00002239     0.06580
C738        C  0.50003734  0.96787663  0.66655616     0.06580
C739        C  0.46800319  0.96778121  0.66668322     0.06580
C740        C  0.34000531  0.52466727  0.69169542     0.07420
C741        C  0.31176813  0.00004496  0.66694129    -0.08730
C742        C  0.31529774  0.97535956  0.97569935     0.04920
C743        C  0.34704432  0.97528028  0.97596851    -0.07250
C744        C  0.37530074  0.99989992  0.66729816     0.07420
C745        C  0.37177008  0.52460191  0.69180010    -0.06670
H746        H  0.28718093  0.00010689  0.66678317     0.13010
H747        H  0.34976868  0.95615156  0.95700149     0.10540
H748        H  0.39370545  0.54370602  0.71085829     0.10390
C749        C  0.33932623  0.81434566  0.97570012     0.07420
C750        C  0.31094050  0.81078542  0.66667307    -0.08730
C751        C  0.31452373  0.83918035  0.69097919     0.04920
C752        C  0.34643413  0.87106745  0.69089610    -0.07250
C753        C  0.37478687  0.87459727  0.66667478     0.07420
C754        C  0.37122829  0.84624098  0.97578021    -0.06670
H755        H  0.28623602  0.78609255  0.66667457     0.13010
H756        H  0.34920274  0.89305514  0.70964599     0.10540
H757        H  0.39321250  0.84899130  0.95703354     0.10390
C758        C  0.02484383  0.83985016  0.97504288     0.07420
C759        C  0.02479746  0.87161803  0.97495623    -0.08730
C760        C  0.00011158  0.87510479  0.99947335     0.04920
C761        C  0.47549142  0.84686607  0.69080796    -0.07250
C762        C  0.47555290  0.81511718  0.69106215     0.07420
C763        C  0.50022174  0.81156894  0.99980229    -0.06670
H764        H  0.04389982  0.89354218  0.95589074     0.13010
H765        H  0.45637284  0.84960339  0.70978440     0.10540
H766        H  0.50026813  0.78697840  0.99994481     0.10390
C767        C  0.47520819  0.65987818  0.97529883     0.07420
C768        C  0.47529288  0.62812921  0.97519192    -0.08730
C769        C  0.00004979  0.62468474  0.99964052     0.04920
C770        C  0.02471162  0.65295799  0.69091765    -0.07250
C771        C  0.02461297  0.68469170  0.69118257     0.07420
C772        C  0.99986873  0.68818457  0.99999526    -0.06670
H773        H  0.45616605  0.60618764  0.95616528     0.13010
H774        H  0.04388152  0.65025630  0.70984532     0.10540
H775        H  0.99979412  0.71276100  0.00014472     0.10390
C776        C  0.16012748  0.97502532  0.69129035     0.07420
C777        C  0.12837619  0.97511730  0.69140150    -0.08730
C778        C  0.12493370  0.99987749  0.66696932     0.04920
C779        C  0.15312664  0.52452956  0.97569344    -0.07250
C780        C  0.18486306  0.52442564  0.97542312     0.07420
C781        C  0.18835498  0.49968102  0.66660165    -0.06670
H782        H  0.10643224  0.95599648  0.71042554     0.13010
H783        H  0.15042650  0.54370081  0.95677627     0.10540
H784        H  0.21293449  0.49960382  0.66645209     0.10390
C785        C  0.18554870  0.66061190  0.69100076     0.07420
C786        C  0.18912982  0.68899424  0.99998156    -0.08730
C787        C  0.16073843  0.68540041  0.97562059     0.04920
C788        C  0.12884818  0.65349916  0.97570162    -0.07250
C789        C  0.12530837  0.62516475  0.99996476     0.07420
C790        C  0.15365169  0.62871857  0.69090290    -0.06670
H791        H  0.21382679  0.71369388  0.99998775     0.13010
H792        H  0.10686220  0.65072456  0.95691967     0.10540
H793        H  0.15088719  0.60673998  0.70967892     0.10390
Zn794      Zn  0.37588105  0.66731318  0.81237392     1.49720
Zn795      Zn  0.29168720  0.62416881  0.81209179     1.49360
Zn796      Zn  0.33344742  0.66638930  0.89628772     1.49110
Zn797      Zn  0.33303416  0.70834053  0.81252926     1.49480
O798        O  0.33349530  0.66653939  0.83332857    -1.79830
O799        O  0.36339902  0.62484063  0.77599572    -0.70460
O800        O  0.26146674  0.59433637  0.86099468    -0.70280
O801        O  0.37576839  0.66562109  0.91967756    -0.69800
O802        O  0.30494112  0.59441645  0.77636478    -0.70480
O803        O  0.40555149  0.66698428  0.86133619    -0.70080
O804        O  0.29022192  0.62386276  0.91942549    -0.70660
O805        O  0.33312973  0.73811495  0.86165463    -0.70050
O806        O  0.26185583  0.63672053  0.77545613    -0.70810
O807        O  0.33412834  0.70937812  0.91988163    -0.70200
O808        O  0.29016214  0.69516223  0.77642867    -0.70660
O809        O  0.37566377  0.73855149  0.77627968    -0.70570
O810        O  0.40573770  0.71035564  0.77653076    -0.70360
C811        C  0.33438951  0.59830624  0.76488665     0.81430
C812        C  0.26428526  0.59775118  0.90154332     0.81920
C813        C  0.40194459  0.66604945  0.90185952     0.80880
C814        C  0.33376061  0.73519712  0.90218043     0.81250
C815        C  0.26454575  0.66578669  0.76452641     0.82390
C816        C  0.40204253  0.73600398  0.76506220     0.81440
C817        C  0.23769035  0.66534419  0.73805898    -0.08980
C818        C  0.21442153  0.66395836  0.71626216    -0.10540
C819        C  0.21370302  0.54976805  0.94984834    -0.08980
C820        C  0.23712661  0.57146745  0.92794976    -0.10540
C821        C  0.44975646  0.66324291  0.94997489    -0.08980
C822        C  0.42807697  0.66503795  0.92826200    -0.10540
C823        C  0.45022281  0.78633067  0.71669659    -0.08980
C824        C  0.42846376  0.76301346  0.73865082    -0.10540
C825        C  0.33441059  0.76210231  0.92872931    -0.08980
C826        C  0.33594315  0.78544234  0.95049625    -0.10540
C827        C  0.33502865  0.57189197  0.73869324    -0.08980
C828        C  0.33665277  0.55010558  0.71703049    -0.10540
C829        C  0.43498551  0.93476672  0.66668510    -0.08980
C830        C  0.40754158  0.90733249  0.66668002    -0.10540
C831        C  0.40789027  0.99984675  0.66732219    -0.08980
C832        C  0.43518696  0.99976750  0.66711760    -0.10540
C833        C  0.49999886  0.93498260  0.99961564    -0.08980
C834        C  0.00006937  0.90768904  0.99944089    -0.10540
C835        C  0.09257501  0.59242550  0.99996013    -0.08980
C836        C  0.06514451  0.56498816  0.99996696    -0.10540
C837        C  0.09235096  0.99994926  0.66702321    -0.08980
C838        C  0.06496389  0.50001024  0.66689083    -0.10540
C839        C  0.00010463  0.59210168  0.99960361    -0.08980
C840        C  0.00015368  0.56479419  0.99974819    -0.10540
C841        C  0.07163447  0.73695621  0.73868145    -0.08980
C842        C  0.04994953  0.71352674  0.71677195    -0.10540
C843        C  0.16546871  0.73753594  0.92858037    -0.08980
C844        C  0.16407634  0.71426569  0.95036740    -0.10540
C845        C  0.05025880  0.83648262  0.94967324    -0.08980
C846        C  0.07203317  0.83486185  0.92797807    -0.10540
C847        C  0.26316785  0.92829331  0.92809108    -0.08980
C848        C  0.28649691  0.95003946  0.95005623    -0.10540
C849        C  0.16525599  0.92790053  0.73835537    -0.08980
C850        C  0.16348736  0.94957912  0.71662047    -0.10540
C851        C  0.26229522  0.83427933  0.73798079    -0.08980
C852        C  0.28563172  0.83581225  0.71620118    -0.10540
Zn853      Zn  0.62429355  0.29155365  0.18788738     1.49720
Zn854      Zn  0.66745191  0.37573727  0.18760349     1.49360
Zn855      Zn  0.70847920  0.33289103  0.18748660     1.49110
Zn856      Zn  0.66652534  0.33329519  0.10370613     1.49480
O857        O  0.66667399  0.33335236  0.16666410    -1.79830
O858        O  0.59454471  0.30481218  0.22362021    -0.70460
O859        O  0.71049706  0.40558685  0.22346702    -0.70280
O860        O  0.69529381  0.29002144  0.22356841    -0.69800
O861        O  0.62497908  0.36326071  0.22398550    -0.70480
O862        O  0.63684272  0.26172526  0.22452096    -0.70080
O863        O  0.73868422  0.37550505  0.22376511    -0.70660
O864        O  0.70952387  0.33397930  0.08013871    -0.70050
O865        O  0.66712865  0.40539927  0.13862989    -0.70810
O866        O  0.73826614  0.33298950  0.13837482    -0.70200
O867        O  0.66575420  0.37560107  0.08029851    -0.70660
O868        O  0.62401022  0.29006063  0.08055553    -0.70570
O869        O  0.59446520  0.26132497  0.13897635    -0.70360
C870        C  0.59844421  0.33425937  0.23510398     0.81430
C871        C  0.73613800  0.40188351  0.23497002     0.81920
C872        C  0.66591142  0.26440985  0.23545648     0.80880
C873        C  0.73534640  0.33361358  0.09784818     0.81250
C874        C  0.66619160  0.40178214  0.09810648     0.82390
C875        C  0.59789583  0.26412737  0.09842941     0.81440
C876        C  0.96801910  0.49980386  0.00013563     0.06580
C877        C  0.50018160  0.03189128  0.33328687     0.06580
C878        C  0.53221029  0.03198046  0.33330645     0.06680
C879        C  0.53212957  0.99996237  0.33335697     0.06580
C880        C  0.99996260  0.46787549  0.99987793     0.06580
C881        C  0.96792965  0.46777964  0.00000708     0.06580
C882        C  0.84006081  0.02466833  0.02502914     0.07420
C883        C  0.81171161  0.50004568  0.00027370    -0.08730
C884        C  0.81524379  0.47536088  0.30903361     0.04920
C885        C  0.84698779  0.47527995  0.30930498    -0.07250
C886        C  0.87524028  0.49989854  0.00063503     0.07420
C887        C  0.87182767  0.02460373  0.02513157    -0.06670
H888        H  0.78712488  0.50010848  0.00011380     0.13010
H889        H  0.84971311  0.45615139  0.29033854     0.10540
H890        H  0.89376285  0.04370874  0.04418893     0.10390
C891        C  0.83929643  0.31432186  0.30904143     0.07420
C892        C  0.81090387  0.31074946  0.00001525    -0.08730
C893        C  0.81447572  0.33914207  0.02431571     0.04920
C894        C  0.84637675  0.37103723  0.02422687    -0.07250
C895        C  0.87473192  0.37457947  0.00000207     0.07420
C896        C  0.87119110  0.34622440  0.30911663    -0.06670
H897        H  0.78620549  0.28605041  0.00002067     0.13010
H898        H  0.84913531  0.39302286  0.04297254     0.10540
H899        H  0.89317735  0.34898372  0.29036652     0.10390
C900        C  0.52485481  0.33990006  0.30838437     0.07420
C901        C  0.52478570  0.37165704  0.30828646    -0.08730
C902        C  0.50008439  0.37512715  0.33279384     0.04920
C903        C  0.97547327  0.34688322  0.02413066    -0.07250
C904        C  0.97555918  0.31514687  0.02439635     0.07420
C905        C  0.00024189  0.31161534  0.33314616    -0.06670
H906        H  0.54388065  0.39358435  0.28921892     0.13010
H907        H  0.95634305  0.34960703  0.04309964     0.10540
H908        H  0.00030506  0.28703329  0.33329654     0.10390
C909        C  0.97521774  0.15984059  0.30863594     0.07420
C910        C  0.97532025  0.12809997  0.30852361    -0.08730
C911        C  0.50008757  0.12466837  0.33296856     0.04920
C912        C  0.52474034  0.15294516  0.02424914    -0.07250
C913        C  0.52462337  0.18466966  0.02452126     0.07420
C914        C  0.49986924  0.18814942  0.33333759    -0.06670
H915        H  0.95620151  0.10615629  0.28949298     0.13010
H916        H  0.54391842  0.15025391  0.04317274     0.10540
H917        H  0.49978218  0.21271950  0.33349058     0.10390
C918        C  0.66004482  0.47502807  0.02462992     0.07420
C919        C  0.62829394  0.47512041  0.02474068    -0.08730
C920        C  0.62485099  0.49987716  0.00030171     0.04920
C921        C  0.65321201  0.02453314  0.30903385    -0.07250
C922        C  0.68494818  0.02442831  0.30876229     0.07420
C923        C  0.68843911  0.99968100  0.99993435    -0.06670
H924        H  0.60635083  0.45600242  0.04376840     0.13010
H925        H  0.65051374  0.04370737  0.29012086     0.10540
H926        H  0.71301873  0.99960373  0.99978411     0.10390
C927        C  0.68558811  0.16066185  0.02434213     0.07420
C928        C  0.68915646  0.18904099  0.33332543    -0.08730
C929        C  0.66076221  0.18543036  0.30895468     0.04920
C930        C  0.62888403  0.15351667  0.30902417    -0.07250
C931        C  0.62535918  0.12518725  0.33328513     0.07420
C932        C  0.65370344  0.12875754  0.02423292    -0.06670
H933        H  0.71384485  0.21374916  0.33333955     0.13010
H934        H  0.60689596  0.15072847  0.29023491     0.10540
H935        H  0.65095018  0.10678243  0.04300679     0.10390
Zn936      Zn  0.87590675  0.16731868  0.14569446     1.49720
Zn937      Zn  0.79171422  0.12418330  0.14540744     1.49360
Zn938      Zn  0.83348872  0.16640852  0.22960967     1.49110
Zn939      Zn  0.83306380  0.20835580  0.14586322     1.49480
O940        O  0.83352523  0.16655124  0.16665015    -1.79830
O941        O  0.86341872  0.12484324  0.10931319    -0.70460
O942        O  0.76151028  0.09435221  0.19432101    -0.70280
O943        O  0.87580750  0.16563724  0.25300249    -0.69800
O944        O  0.80496115  0.09442212  0.10966795    -0.70480
O945        O  0.90557411  0.16697294  0.19465862    -0.70080
O946        O  0.79027721  0.12387933  0.25274706    -0.70660
O947        O  0.83314651  0.23812209  0.19498727    -0.70050
O948        O  0.76187713  0.13674667  0.10879095    -0.70810
O949        O  0.83415156  0.20938555  0.25321015    -0.70200
O950        O  0.79019804  0.19518880  0.10976629    -0.70660
O951        O  0.87569131  0.23856843  0.10961894    -0.70570
O952        O  0.90576117  0.21036742  0.10985334    -0.70360
C953        C  0.83441107  0.09830878  0.09819824     0.81430
C954        C  0.76434091  0.09776549  0.23486943     0.81920
C955        C  0.90197251  0.16604399  0.23518318     0.80880
C956        C  0.83377323  0.23519989  0.23551224     0.81250
C957        C  0.76457498  0.16581789  0.09786659     0.82390
C958        C  0.90206717  0.23601894  0.09839373     0.81440
C959        C  0.73772416  0.16538952  0.07140494    -0.08980
C960        C  0.71446196  0.16401636  0.04960713    -0.10540
C961        C  0.71378580  0.04977196  0.28318856    -0.08980
C962        C  0.73719828  0.07147556  0.26128312    -0.10540
C963        C  0.94976499  0.16320094  0.28330437    -0.08980
C964        C  0.92809483  0.16501032  0.26158635    -0.10540
C965        C  0.95023839  0.28635437  0.05003047    -0.08980
C966        C  0.92848586  0.26303119  0.07198350    -0.10540
C967        C  0.83440493  0.26209372  0.26206409    -0.08980
C968        C  0.83592380  0.28542498  0.28383510    -0.10540
C969        C  0.83505845  0.07189079  0.07201356    -0.08980
C970        C  0.83670119  0.05010731  0.05036174    -0.10540
C971        C  0.93491310  0.43476452  0.00000397    -0.08980
C972        C  0.90747567  0.40732438  0.99999974    -0.10540
C973        C  0.90782527  0.49984522  0.00065980    -0.08980
C974        C  0.93511944  0.49976612  0.00045404    -0.10540
C975        C  0.99993070  0.43498464  0.33292867    -0.08980
C976        C  0.50001711  0.40769903  0.33275270    -0.10540
C977        C  0.59263919  0.09243529  0.33327217    -0.08980
C978        C  0.56521726  0.06498964  0.33328132    -0.10540
C979        C  0.59227027  0.49994890  0.00035522    -0.08980
C980        C  0.56504109  0.00000849  0.00022541    -0.10540
C981        C  0.50016377  0.09209542  0.33292385    -0.08980
C982        C  0.50022549  0.06479402  0.33306721    -0.10540
C983        C  0.57163302  0.23694947  0.07201574    -0.08980
C984        C  0.54995410  0.21351129  0.05010950    -0.10540
C985        C  0.66546435  0.23755388  0.26191330    -0.08980
C986        C  0.66408443  0.21428955  0.28370137    -0.10540
C987        C  0.55027679  0.33654030  0.28301847    -0.08980
C988        C  0.57204531  0.33490729  0.26132454    -0.10540
C989        C  0.76313882  0.42829360  0.26140962    -0.08980
C990        C  0.78645163  0.45004239  0.28338613    -0.10540
C991        C  0.66519216  0.42790937  0.07169033    -0.08980
C992        C  0.66340820  0.44958350  0.04996203    -0.10540
C993        C  0.76224941  0.33425167  0.07130485    -0.08980
C994        C  0.78558050  0.33576986  0.04953028    -0.10540
Zn995      Zn  0.62429356  0.29155367  0.52122075     1.49720
Zn996      Zn  0.66745191  0.37573728  0.52093684     1.49360
Zn997      Zn  0.70847920  0.33289103  0.52081995     1.49110
Zn998      Zn  0.66652536  0.33329522  0.43703949     1.49480
O999        O  0.66667400  0.33335237  0.49999746    -1.79830
O1000       O  0.59454471  0.30481219  0.55695356    -0.70460
O1001       O  0.71049705  0.40558685  0.55680037    -0.70280
O1002       O  0.69529381  0.29002144  0.55690175    -0.69800
O1003       O  0.62497907  0.36326072  0.55731884    -0.70480
O1004       O  0.63684272  0.26172527  0.55785432    -0.70080
O1005       O  0.73868422  0.37550506  0.55709846    -0.70660
O1006       O  0.70952388  0.33397932  0.41347206    -0.70050
O1007       O  0.66712865  0.40539928  0.47196324    -0.70810
O1008       O  0.73826614  0.33298951  0.47170816    -0.70200
O1009       O  0.66575421  0.37560109  0.41363186    -0.70660
O1010       O  0.62401025  0.29006069  0.41388890    -0.70570
O1011       O  0.59446522  0.26132502  0.47230971    -0.70360
C1012       C  0.59844420  0.33425937  0.56843733     0.81430
C1013       C  0.73613800  0.40188351  0.56830337     0.81920
C1014       C  0.66591142  0.26440985  0.56878982     0.80880
C1015       C  0.73534641  0.33361359  0.43118153     0.81250
C1016       C  0.66619160  0.40178215  0.43143983     0.82390
C1017       C  0.59789585  0.26412744  0.43176278     0.81440
C1018       C  0.96801911  0.49980386  0.33346895     0.06580
C1019       C  0.50018159  0.03189128  0.66662021     0.06580
C1020       C  0.53221028  0.03198045  0.66663979     0.06680
C1021       C  0.53212956  0.99996236  0.66669031     0.06580
C1022       C  0.99996260  0.46787549  0.33321126     0.06580
C1023       C  0.96792965  0.46777964  0.33334041     0.06580
C1024       C  0.84006149  0.02466838  0.35836251     0.07420
C1025       C  0.81171162  0.50004569  0.33360701    -0.08730
C1026       C  0.81524377  0.47536088  0.64236698     0.04920
C1027       C  0.84698778  0.47527995  0.64263834    -0.07250
C1028       C  0.87524029  0.49989855  0.33396835     0.07420
C1029       C  0.87182833  0.02460361  0.35846491    -0.06670
H1030       H  0.78712489  0.50010849  0.33344711     0.13010
H1031       H  0.84971310  0.45615139  0.62367190     0.10540
H1032       H  0.89376353  0.04370855  0.37752230     0.10390
C1033       C  0.83929642  0.31432186  0.64237475     0.07420
C1034       C  0.81090387  0.31074947  0.33334859    -0.08730
C1035       C  0.81447572  0.33914208  0.35764905     0.04920
C1036       C  0.84637675  0.37103724  0.35756020    -0.07250
C1037       C  0.87473192  0.37457948  0.33333541     0.07420
C1038       C  0.87119110  0.34622440  0.64244996    -0.06670
H1039       H  0.78620549  0.28605042  0.33335401     0.13010
H1040       H  0.84913531  0.39302287  0.37630588     0.10540
H1041       H  0.89317734  0.34898372  0.62369984     0.10390
C1042       C  0.52485480  0.33990006  0.64171772     0.07420
C1043       C  0.52478569  0.37165704  0.64161980    -0.08730
C1044       C  0.50008439  0.37512715  0.66612719     0.04920
C1045       C  0.97547327  0.34688321  0.35746397    -0.07250
C1046       C  0.97555917  0.31514687  0.35772967     0.07420
C1047       C  0.00024189  0.31161535  0.66647951    -0.06670
H1048       H  0.54388064  0.39358435  0.62255227     0.13010
H1049       H  0.95634305  0.34960703  0.37643296     0.10540
H1050       H  0.00030506  0.28703330  0.66662989     0.10390
C1051       C  0.97521774  0.15984059  0.64196927     0.07420
C1052       C  0.97532025  0.12809997  0.64185694    -0.08730
C1053       C  0.50008758  0.12466837  0.66630189     0.04920
C1054       C  0.52474033  0.15294531  0.35758248    -0.07250
C1055       C  0.52462336  0.18466982  0.35785460     0.07420
C1056       C  0.49986925  0.18814942  0.66667091    -0.06670
H1057       H  0.95620151  0.10615629  0.62282631     0.13010
H1058       H  0.54391841  0.15025406  0.37650608     0.10540
H1059       H  0.49978218  0.21271951  0.66682390     0.10390
C1060       C  0.66004482  0.47502807  0.35796327     0.07420
C1061       C  0.62829393  0.47512040  0.35807403    -0.08730
C1062       C  0.62485098  0.49987716  0.33363506     0.04920
C1063       C  0.65321201  0.02453313  0.64236717    -0.07250
C1064       C  0.68494818  0.02442831  0.64209561     0.07420
C1065       C  0.68843964  0.99968082  0.33326768    -0.06670
H1066       H  0.60635082  0.45600242  0.37710174     0.13010
H1067       H  0.65051374  0.04370737  0.62345419     0.10540
H1068       H  0.71301917  0.99960337  0.33311744     0.10390
C1069       C  0.68558869  0.16066245  0.35767542     0.07420
C1070       C  0.68915646  0.18904099  0.66665877    -0.08730
C1071       C  0.66076220  0.18543036  0.64228802     0.04920
C1072       C  0.62888403  0.15351667  0.64235752    -0.07250
C1073       C  0.62535918  0.12518725  0.66661847     0.07420
C1074       C  0.65370401  0.12875821  0.35756623    -0.06670
H1075       H  0.71384485  0.21374916  0.66667289     0.13010
H1076       H  0.60689595  0.15072847  0.62356826     0.10540
H1077       H  0.65095064  0.10678307  0.37634011     0.10390
Zn1078     Zn  0.87590676  0.16731866  0.47902776     1.49720
Zn1079     Zn  0.79171426  0.12418324  0.47874073     1.49360
Zn1080     Zn  0.83348873  0.16640852  0.56294300     1.49110
Zn1081     Zn  0.83306388  0.20835581  0.47919662     1.49480
O1082       O  0.83352525  0.16655121  0.49998348    -1.79830
O1083       O  0.86341875  0.12484320  0.44264648    -0.70460
O1084       O  0.76151029  0.09435219  0.52765433    -0.70280
O1085       O  0.87580751  0.16563724  0.58633582    -0.69800
O1086       O  0.80496119  0.09442199  0.44300116    -0.70480
O1087       O  0.90557411  0.16697294  0.52799194    -0.70080
O1088       O  0.79027721  0.12387933  0.58608039    -0.70660
O1089       O  0.83314654  0.23812210  0.52832062    -0.70050
O1090       O  0.76187721  0.13674669  0.44212431    -0.70810
O1091       O  0.83415156  0.20938555  0.58654349    -0.70200
O1092       O  0.79019819  0.19518882  0.44309975    -0.70660
O1093       O  0.87569133  0.23856844  0.44295230    -0.70570
O1094       O  0.90576118  0.21036741  0.44318665    -0.70360
C1095       C  0.83441114  0.09830871  0.43153148     0.81430
C1096       C  0.76434091  0.09776548  0.56820275     0.81920
C1097       C  0.90197251  0.16604399  0.56851650     0.80880
C1098       C  0.83377323  0.23519990  0.56884558     0.81250
C1099       C  0.76457513  0.16581795  0.43120001     0.82390
C1100       C  0.90206718  0.23601894  0.43172706     0.81440
C1101       C  0.73772444  0.16538971  0.40473832    -0.08980
C1102       C  0.71446241  0.16401679  0.38294044    -0.10540
C1103       C  0.71378579  0.04977197  0.61652188    -0.08980
C1104       C  0.73719828  0.07147557  0.59461644    -0.10540
C1105       C  0.94976499  0.16320094  0.61663770    -0.08980
C1106       C  0.92809483  0.16501032  0.59491967    -0.10540
C1107       C  0.95023839  0.28635437  0.38336379    -0.08980
C1108       C  0.92848587  0.26303118  0.40531681    -0.10540
C1109       C  0.83440493  0.26209372  0.59539742    -0.08980
C1110       C  0.83592379  0.28542498  0.61716843    -0.10540
C1111       C  0.83505869  0.07189072  0.40534684    -0.08980
C1112       C  0.83670179  0.05010736  0.38369512    -0.10540
C1113       C  0.93491310  0.43476452  0.33333730    -0.08980
C1114       C  0.90747567  0.40732438  0.33333307    -0.10540
C1115       C  0.90782528  0.49984522  0.33399312    -0.08980
C1116       C  0.93511945  0.49976613  0.33378736    -0.10540
C1117       C  0.99993070  0.43498464  0.66626201    -0.08980
C1118       C  0.50001711  0.40769903  0.66608605    -0.10540
C1119       C  0.59263918  0.09243529  0.66660551    -0.08980
C1120       C  0.56521726  0.06498964  0.66661465    -0.10540
C1121       C  0.59227026  0.49994890  0.33368856    -0.08980
C1122       C  0.56504313  0.00001065  0.33355894    -0.10540
C1123       C  0.50016377  0.09209543  0.66625718    -0.08980
C1124       C  0.50022549  0.06479402  0.66640055    -0.10540
C1125       C  0.57163301  0.23694959  0.40534909    -0.08980
C1126       C  0.54995408  0.21351144  0.38344284    -0.10540
C1127       C  0.66546435  0.23755388  0.59524664    -0.08980
C1128       C  0.66408443  0.21428955  0.61703471    -0.10540
C1129       C  0.55027678  0.33654029  0.61635181    -0.08980
C1130       C  0.57204530  0.33490729  0.59465788    -0.10540
C1131       C  0.76313881  0.42829360  0.59474298    -0.08980
C1132       C  0.78645162  0.45004239  0.61671949    -0.10540
C1133       C  0.66519215  0.42790937  0.40502367    -0.08980
C1134       C  0.66340819  0.44958350  0.38329537    -0.10540
C1135       C  0.76224941  0.33425168  0.40463819    -0.08980
C1136       C  0.78558050  0.33576987  0.38286362    -0.10540
Zn1137     Zn  0.62429357  0.29155364  0.85455412     1.49720
Zn1138     Zn  0.66745191  0.37573727  0.85427017     1.49360
Zn1139     Zn  0.70847918  0.33289094  0.85415336     1.49110
Zn1140     Zn  0.66652537  0.33329522  0.77037284     1.49480
O1141       O  0.66667401  0.33335235  0.83333083    -1.79830
O1142       O  0.59454472  0.30481218  0.89028691    -0.70460
O1143       O  0.71049705  0.40558684  0.89013370    -0.70280
O1144       O  0.69529376  0.29002125  0.89023524    -0.69800
O1145       O  0.62497907  0.36326071  0.89065217    -0.70480
O1146       O  0.63684269  0.26172518  0.89118770    -0.70080
O1147       O  0.73868420  0.37550503  0.89043183    -0.70660
O1148       O  0.70952388  0.33397932  0.74680541    -0.70050
O1149       O  0.66712865  0.40539928  0.80529658    -0.70810
O1150       O  0.73826613  0.33298947  0.80504152    -0.70200
O1151       O  0.66575422  0.37560109  0.74696520    -0.70660
O1152       O  0.62401026  0.29006070  0.74722224    -0.70570
O1153       O  0.59446523  0.26132501  0.80564305    -0.70360
C1154       C  0.59844420  0.33425937  0.90177066     0.81430
C1155       C  0.73613799  0.40188350  0.90163671     0.81920
C1156       C  0.66591133  0.26440967  0.90212326     0.80880
C1157       C  0.73534641  0.33361359  0.76451488     0.81250
C1158       C  0.66619160  0.40178216  0.76477317     0.82390
C1159       C  0.59789585  0.26412744  0.76509612     0.81440
C1160       C  0.96801910  0.49980386  0.66680229     0.06580
C1161       C  0.50018095  0.03189083  0.99995386     0.06580
C1162       C  0.53220925  0.03197928  0.99997331     0.06680
C1163       C  0.53212765  0.99996070  0.00002380     0.06580
C1164       C  0.99996260  0.46787549  0.66654460     0.06580
C1165       C  0.96792965  0.46777965  0.66667374     0.06580
C1166       C  0.84006143  0.02466832  0.69169580     0.07420
C1167       C  0.81171161  0.50004569  0.66694038    -0.08730
C1168       C  0.81524378  0.47536087  0.97570030     0.04920
C1169       C  0.84698778  0.47527995  0.97597167    -0.07250
C1170       C  0.87524028  0.49989855  0.66730171     0.07420
C1171       C  0.87182827  0.02460357  0.69179821    -0.06670
H1172       H  0.78712488  0.50010849  0.66678048     0.13010
H1173       H  0.84971310  0.45615138  0.95700522     0.10540
H1174       H  0.89376347  0.04370851  0.71085559     0.10390
C1175       C  0.83929643  0.31432186  0.97570809     0.07420
C1176       C  0.81090387  0.31074947  0.66668192    -0.08730
C1177       C  0.81447572  0.33914208  0.69098238     0.04920
C1178       C  0.84637674  0.37103724  0.69089353    -0.07250
C1179       C  0.87473191  0.37457948  0.66666874     0.07420
C1180       C  0.87119110  0.34622440  0.97578329    -0.06670
H1181       H  0.78620548  0.28605042  0.66668734     0.13010
H1182       H  0.84913531  0.39302287  0.70963921     0.10540
H1183       H  0.89317735  0.34898372  0.95703318     0.10390
C1184       C  0.52485480  0.33990006  0.97505105     0.07420
C1185       C  0.52478569  0.37165703  0.97495313    -0.08730
C1186       C  0.50008439  0.37512715  0.99946052     0.04920
C1187       C  0.97547327  0.34688321  0.69079732    -0.07250
C1188       C  0.97555917  0.31514687  0.69106301     0.07420
C1189       C  0.00024189  0.31161535  0.99981284    -0.06670
H1190       H  0.54388064  0.39358435  0.95588560     0.13010
H1191       H  0.95634304  0.34960703  0.70976630     0.10540
H1192       H  0.00030506  0.28703330  0.99996322     0.10390
C1193       C  0.97521773  0.15984042  0.97530260     0.07420
C1194       C  0.97532025  0.12809980  0.97519027    -0.08730
C1195       C  0.50008760  0.12466823  0.99963520     0.04920
C1196       C  0.52474033  0.15294531  0.69091581    -0.07250
C1197       C  0.52462337  0.18466983  0.69118793     0.07420
C1198       C  0.49986925  0.18814926  0.00000424    -0.06670
H1199       H  0.95620150  0.10615612  0.95615964     0.13010
H1200       H  0.54391842  0.15025407  0.70983941     0.10540
H1201       H  0.49978219  0.21271934  0.00015723     0.10390
C1202       C  0.66004482  0.47502808  0.69129660     0.07420
C1203       C  0.62829393  0.47512041  0.69140737    -0.08730
C1204       C  0.62485098  0.49987716  0.66696839     0.04920
C1205       C  0.65321106  0.02453289  0.97570049    -0.07250
C1206       C  0.68494746  0.02442837  0.97542896     0.07420
C1207       C  0.68843964  0.99968082  0.66660100    -0.06670
H1208       H  0.60635083  0.45600243  0.71043509     0.13010
H1209       H  0.65051260  0.04370697  0.95678744     0.10540
H1210       H  0.71301917  0.99960337  0.66645076     0.10390
C1211       C  0.68558869  0.16066245  0.69100876     0.07420
C1212       C  0.68915578  0.18904035  0.99999212    -0.08730
C1213       C  0.66076152  0.18542969  0.97562136     0.04920
C1214       C  0.62888334  0.15351589  0.97569085    -0.07250
C1215       C  0.62535853  0.12518639  0.99995176     0.07420
C1216       C  0.65370400  0.12875821  0.69089957    -0.06670
H1217       H  0.71384415  0.21374855  0.00000623     0.13010
H1218       H  0.60689527  0.15072764  0.95690156     0.10540
H1219       H  0.65095064  0.10678306  0.70967344     0.10390
Zn1220     Zn  0.87590676  0.16731865  0.81236112     1.49720
Zn1221     Zn  0.79171423  0.12418319  0.81207412     1.49360
Zn1222     Zn  0.83348869  0.16640844  0.89627640     1.49110
Zn1223     Zn  0.83306388  0.20835579  0.81252997     1.49480
O1224       O  0.83352524  0.16655117  0.83331686    -1.79830
O1225       O  0.86341874  0.12484318  0.77597982    -0.70460
O1226       O  0.76151018  0.09435211  0.86098775    -0.70280
O1227       O  0.87580751  0.16563719  0.91966920    -0.69800
O1228       O  0.80496118  0.09442197  0.77633452    -0.70480
O1229       O  0.90557412  0.16697292  0.86132531    -0.70080
O1230       O  0.79027707  0.12387921  0.91941383    -0.70660
O1231       O  0.83314654  0.23812209  0.86165396    -0.70050
O1232       O  0.76187721  0.13674668  0.77545766    -0.70810
O1233       O  0.83415155  0.20938552  0.91987683    -0.70200
O1234       O  0.79019819  0.19518881  0.77643309    -0.70660
O1235       O  0.87569133  0.23856843  0.77628564    -0.70570
O1236       O  0.90576118  0.21036740  0.77652000    -0.70360
C1237       C  0.83441113  0.09830868  0.76486482     0.81430
C1238       C  0.76434073  0.09776539  0.90153618     0.81920
C1239       C  0.90197252  0.16604394  0.90184987     0.80880
C1240       C  0.83377324  0.23519988  0.90217892     0.81250
C1241       C  0.76457513  0.16581794  0.76453335     0.82390
C1242       C  0.90206718  0.23601893  0.76506041     0.81440
C1243       C  0.73772444  0.16538970  0.73807166    -0.08980
C1244       C  0.71446241  0.16401679  0.71627378    -0.10540
C1245       C  0.71378514  0.04977208  0.94985520    -0.08980
C1246       C  0.73719788  0.07147556  0.92794985    -0.10540
C1247       C  0.94976498  0.16320080  0.94997104    -0.08980
C1248       C  0.92809484  0.16501024  0.92825303    -0.10540
C1249       C  0.95023839  0.28635437  0.71669713    -0.08980
C1250       C  0.92848587  0.26303118  0.73865016    -0.10540
C1251       C  0.83440493  0.26209371  0.92873076    -0.08980
C1252       C  0.83592380  0.28542497  0.95050176    -0.10540
C1253       C  0.83505868  0.07189070  0.73868016    -0.08980
C1254       C  0.83670174  0.05010732  0.71702842    -0.10540
C1255       C  0.93491310  0.43476452  0.66667064    -0.08980
C1256       C  0.90747567  0.40732438  0.66666641    -0.10540
C1257       C  0.90782527  0.49984522  0.66732647    -0.08980
C1258       C  0.93511944  0.49976612  0.66712070    -0.10540
C1259       C  0.99993070  0.43498464  0.99959535    -0.08980
C1260       C  0.50001711  0.40769903  0.99941938    -0.10540
C1261       C  0.59263856  0.09243413  0.99993868    -0.08980
C1262       C  0.56521666  0.06498830  0.99994793    -0.10540
C1263       C  0.59227027  0.49994890  0.66702189    -0.08980
C1264       C  0.56504312  0.00001065  0.66689227    -0.10540
C1265       C  0.50016386  0.09209533  0.99959050    -0.08980
C1266       C  0.50022552  0.06479390  0.99973402    -0.10540
C1267       C  0.57163302  0.23694960  0.73868243    -0.08980
C1268       C  0.54995409  0.21351145  0.71677617    -0.10540
C1269       C  0.66546410  0.23755353  0.92858004    -0.08980
C1270       C  0.66408385  0.21428898  0.95036804    -0.10540
C1271       C  0.55027678  0.33654029  0.94968514    -0.08980
C1272       C  0.57204530  0.33490729  0.92799121    -0.10540
C1273       C  0.76313881  0.42829359  0.92807630    -0.08980
C1274       C  0.78645162  0.45004239  0.95005281    -0.10540
C1275       C  0.66519216  0.42790938  0.73835701    -0.08980
C1276       C  0.66340820  0.44958351  0.71662871    -0.10540
C1277       C  0.76224941  0.33425168  0.73797154    -0.08980
C1278       C  0.78558050  0.33576987  0.71619695    -0.10540
Zn1279     Zn  0.62430667  0.79153731  0.18788725     1.49720
Zn1280     Zn  0.66746339  0.87572229  0.18762092     1.49360
Zn1281     Zn  0.70849768  0.83288498  0.18750060     1.49110
Zn1282     Zn  0.66654509  0.83327464  0.10371828     1.49480
O1283       O  0.66669041  0.83333964  0.16667644    -1.79830
O1284       O  0.59455319  0.80478499  0.22361639    -0.70460
O1285       O  0.71050988  0.90558042  0.22349804    -0.70280
O1286       O  0.69530469  0.79000956  0.22357986    -0.69800
O1287       O  0.62497303  0.86323405  0.22398283    -0.70480
O1288       O  0.63685238  0.76170747  0.22451542    -0.70080
O1289       O  0.73869947  0.87550148  0.22378241    -0.70660
O1290       O  0.70954342  0.83396044  0.08014904    -0.70050
O1291       O  0.66715617  0.90538305  0.13863608    -0.70810
O1292       O  0.73829778  0.83299955  0.13838729    -0.70200
O1293       O  0.66579180  0.87558344  0.08030966    -0.70660
O1294       O  0.62402406  0.79005187  0.08056077    -0.70570
O1295       O  0.59447359  0.76131615  0.13897765    -0.70360
C1296       C  0.59844127  0.83422767  0.23509671     0.81430
C1297       C  0.73615522  0.90187998  0.23499322     0.81920
C1298       C  0.66592037  0.76439443  0.23545863     0.80880
C1299       C  0.73537656  0.83361650  0.09785955     0.81250
C1300       C  0.66623262  0.90176724  0.09811277     0.82390
C1301       C  0.59790407  0.76412287  0.09843151     0.81440
C1302       C  0.96808953  0.99980490  0.00013512     0.06580
C1303       C  0.50010840  0.53189102  0.33329618     0.06580
C1304       C  0.53213572  0.53198024  0.33331613     0.06680
C1305       C  0.53205288  0.49996177  0.33335571     0.06580
C1306       C  0.00003479  0.96787523  0.99988965     0.06580
C1307       C  0.96800092  0.96778062  0.00001666     0.06580
C1308       C  0.84000531  0.52466724  0.02502872     0.07420
C1309       C  0.81176754  0.00004492  0.00027463    -0.08730
C1310       C  0.81529828  0.97535966  0.30903264     0.04920
C1311       C  0.84704479  0.97528020  0.30930178    -0.07250
C1312       C  0.87530021  0.99990020  0.00063151     0.07420
C1313       C  0.87177008  0.52460189  0.02513342    -0.06670
H1314       H  0.78718031  0.00010678  0.00011648     0.13010
H1315       H  0.84976900  0.95615142  0.29033471     0.10540
H1316       H  0.89370545  0.54370601  0.04419161     0.10390
C1317       C  0.83932965  0.81434495  0.30903604     0.07420
C1318       C  0.81093712  0.81078421  0.00000553    -0.08730
C1319       C  0.81451859  0.83917916  0.02430996     0.04920
C1320       C  0.84642734  0.87106807  0.02422423    -0.07250
C1321       C  0.87478055  0.87459943  0.00000239     0.07420
C1322       C  0.87123340  0.84623856  0.30911880    -0.06670
H1323       H  0.78623413  0.78608983  0.00000975     0.13010
H1324       H  0.84919476  0.89305540  0.04297383     0.10540
H1325       H  0.89321736  0.84898778  0.29037257     0.10390
C1326       C  0.52484374  0.83985005  0.30837616     0.07420
C1327       C  0.52479786  0.87161810  0.30828951    -0.08730
C1328       C  0.50011235  0.87510530  0.33280671     0.04920
C1329       C  0.97549103  0.84686550  0.02414145    -0.07250
C1330       C  0.97555297  0.81511689  0.02439564     0.07420
C1331       C  0.00022149  0.81156896  0.33313557    -0.06670
H1332       H  0.54390047  0.89354216  0.28922410     0.13010
H1333       H  0.95637223  0.84960250  0.04311785     0.10540
H1334       H  0.00026765  0.78697830  0.33327814     0.10390
C1335       C  0.97520823  0.65987822  0.30863220     0.07420
C1336       C  0.97529293  0.62812925  0.30852529    -0.08730
C1337       C  0.50004982  0.62468479  0.33297390     0.04920
C1338       C  0.52471159  0.65295794  0.02425093    -0.07250
C1339       C  0.52461293  0.68469164  0.02451585     0.07420
C1340       C  0.49986876  0.68818461  0.33332863    -0.06670
H1341       H  0.95616610  0.60618768  0.28949864     0.13010
H1342       H  0.54388148  0.65025624  0.04317861     0.10540
H1343       H  0.49979414  0.71276104  0.33347807     0.10390
C1344       C  0.66012706  0.97502541  0.02462374     0.07420
C1345       C  0.62837560  0.97511706  0.02473484    -0.08730
C1346       C  0.62493271  0.99987697  0.00030254     0.04920
C1347       C  0.65312663  0.52452956  0.30902679    -0.07250
C1348       C  0.68486305  0.52442564  0.30875647     0.07420
C1349       C  0.68835499  0.49968102  0.99993497    -0.06670
H1350       H  0.60643174  0.95599608  0.04375886     0.13010
H1351       H  0.65042649  0.54370081  0.29010961     0.10540
H1352       H  0.71293449  0.49960381  0.99978541     0.10390
C1353       C  0.68554867  0.66061189  0.02433409     0.07420
C1354       C  0.68912981  0.68899419  0.33331488    -0.08730
C1355       C  0.66073841  0.68540032  0.30895390     0.04920
C1356       C  0.62884816  0.65349909  0.30903496    -0.07250
C1357       C  0.62530837  0.62516470  0.33329812     0.07420
C1358       C  0.65365167  0.62871857  0.02423622    -0.06670
H1359       H  0.71382677  0.71369384  0.33332106     0.13010
H1360       H  0.60686218  0.65072448  0.29025302     0.10540
H1361       H  0.65088716  0.60673998  0.04301224     0.10390
Zn1362     Zn  0.87588105  0.66731303  0.14570721     1.49720
Zn1363     Zn  0.79168710  0.62416864  0.14542500     1.49360
Zn1364     Zn  0.83344734  0.66638893  0.22962070     1.49110
Zn1365     Zn  0.83303408  0.70834019  0.14586210     1.49480
O1366       O  0.83349524  0.66653912  0.16666163    -1.79830
O1367       O  0.86339903  0.62484054  0.10932901    -0.70460
O1368       O  0.76146665  0.59433624  0.19432793    -0.70280
O1369       O  0.87576838  0.66562099  0.25301080    -0.69800
O1370       O  0.80494109  0.59441636  0.10969803    -0.70480
O1371       O  0.90555153  0.66698420  0.19466949    -0.70080
O1372       O  0.79022196  0.62386254  0.25275871    -0.70660
O1373       O  0.83312944  0.73811447  0.19498728    -0.70050
O1374       O  0.76185568  0.63672035  0.10878942    -0.70810
O1375       O  0.83412807  0.70937754  0.25321420    -0.70200
O1376       O  0.79016221  0.69516205  0.10976153    -0.70660
O1377       O  0.87566374  0.73855126  0.10961273    -0.70570
O1378       O  0.90573770  0.71035547  0.10986416    -0.70360
C1379       C  0.83438950  0.59830617  0.09821993     0.81430
C1380       C  0.76428523  0.59775103  0.23487657     0.81920
C1381       C  0.90194462  0.66604941  0.23519281     0.80880
C1382       C  0.83376032  0.73519652  0.23551306     0.81250
C1383       C  0.76454570  0.66578652  0.09785953     0.82390
C1384       C  0.90204254  0.73600377  0.09839548     0.81440
C1385       C  0.73769029  0.66534406  0.07139221    -0.08980
C1386       C  0.71442149  0.66395832  0.04959545    -0.10540
C1387       C  0.71370299  0.54976803  0.28318167    -0.08980
C1388       C  0.73712658  0.57146737  0.26128305    -0.10540
C1389       C  0.94975650  0.66324295  0.28330824    -0.08980
C1390       C  0.92807702  0.66503798  0.26159533    -0.10540
C1391       C  0.95022298  0.78633031  0.05002998    -0.08980
C1392       C  0.92846384  0.76301319  0.07198418    -0.10540
C1393       C  0.83441072  0.76210175  0.26206212    -0.08980
C1394       C  0.83594452  0.78544175  0.28383020    -0.10540
C1395       C  0.83502864  0.57189192  0.07202653    -0.08980
C1396       C  0.83665277  0.55010555  0.05036378    -0.10540
C1397       C  0.93498197  0.93476686  0.00001715    -0.08980
C1398       C  0.90753599  0.90733437  0.00001004    -0.10540
C1399       C  0.90788979  0.99984743  0.00065549    -0.08980
C1400       C  0.93518649  0.99976837  0.00045107    -0.10540
C1401       C  0.00000199  0.93498426  0.33294916    -0.08980
C1402       C  0.50007137  0.90769016  0.33277462    -0.10540
C1403       C  0.59257501  0.59242546  0.33329349    -0.08980
C1404       C  0.56514450  0.56498814  0.33330030    -0.10540
C1405       C  0.59234941  0.99994790  0.00035616    -0.08980
C1406       C  0.56496390  0.50001023  0.00022417    -0.10540
C1407       C  0.50010467  0.59210171  0.33293698    -0.08980
C1408       C  0.50015369  0.56479421  0.33308153    -0.10540
C1409       C  0.57163414  0.73695604  0.07201503    -0.08980
C1410       C  0.54994940  0.71352662  0.05010534    -0.10540
C1411       C  0.66546841  0.73753580  0.26191393    -0.08980
C1412       C  0.66407625  0.71426557  0.28370078    -0.10540
C1413       C  0.55025858  0.83648234  0.28300669    -0.08980
C1414       C  0.57203300  0.83486172  0.26131156    -0.10540
C1415       C  0.76316802  0.92829363  0.26142451    -0.08980
C1416       C  0.78649732  0.95003968  0.28338953    -0.10540
C1417       C  0.66525591  0.92790085  0.07168888    -0.08980
C1418       C  0.66348721  0.94957937  0.04995389    -0.10540
C1419       C  0.76229107  0.83427585  0.07131509    -0.08980
C1420       C  0.78562685  0.83580901  0.04953400    -0.10540
Zn1421     Zn  0.62430721  0.79153757  0.52122016     1.49720
Zn1422     Zn  0.66746366  0.87572202  0.52095388     1.49360
Zn1423     Zn  0.70849873  0.83288507  0.52083267     1.49110
Zn1424     Zn  0.66654657  0.83327471  0.43705055     1.49480
O1425       O  0.66669128  0.83333965  0.50000889    -1.79830
O1426       O  0.59455346  0.80478503  0.55694945    -0.70460
O1427       O  0.71051000  0.90558015  0.55683112    -0.70280
O1428       O  0.69530522  0.79000928  0.55691196    -0.69800
O1429       O  0.62497326  0.86323399  0.55731591    -0.70480
O1430       O  0.63685287  0.76170783  0.55784855    -0.70080
O1431       O  0.73869987  0.87550145  0.55711518    -0.70660
O1432       O  0.70954608  0.83396189  0.41348071    -0.70050
O1433       O  0.66715630  0.90538270  0.47196917    -0.70810
O1434       O  0.73830007  0.83300104  0.47171928    -0.70200
O1435       O  0.66579247  0.87558339  0.41364264    -0.70660
O1436       O  0.62402509  0.79005158  0.41389359    -0.70570
O1437       O  0.59447402  0.76131654  0.47231059    -0.70360
C1438       C  0.59844148  0.83422766  0.56842982     0.81430
C1439       C  0.73615539  0.90187979  0.56832626     0.81920
C1440       C  0.66592082  0.76439452  0.56879139     0.80880
C1441       C  0.73537957  0.83361865  0.43119146     0.81250
C1442       C  0.66623288  0.90176697  0.43144585     0.82390
C1443       C  0.59790470  0.76412298  0.43176445     0.81440
C1444       C  0.96809058  0.99980492  0.33346812     0.06580
C1445       C  0.50010841  0.53189102  0.66662953     0.06580
C1446       C  0.53213573  0.53198025  0.66664948     0.06680
C1447       C  0.53205289  0.49996178  0.66668905     0.06580
C1448       C  0.00003734  0.96787664  0.33322282     0.06580
C1449       C  0.96800319  0.96778122  0.33334988     0.06580
C1450       C  0.84000532  0.52466725  0.35836204     0.07420
C1451       C  0.81176820  0.00004505  0.33360799    -0.08730
C1452       C  0.81529821  0.97535956  0.64236597     0.04920
C1453       C  0.84704475  0.97528014  0.64263511    -0.07250
C1454       C  0.87530078  0.99989996  0.33396485     0.07420
C1455       C  0.87177009  0.52460190  0.35846673    -0.06670
H1456       H  0.78718101  0.00010699  0.33344986     0.13010
H1457       H  0.84976897  0.95615135  0.62366805     0.10540
H1458       H  0.89370546  0.54370601  0.37752492     0.10390
C1459       C  0.83932965  0.81434494  0.64236938     0.07420
C1460       C  0.81094049  0.81078543  0.33333973    -0.08730
C1461       C  0.81452373  0.83918036  0.35764586     0.04920
C1462       C  0.84643413  0.87106746  0.35756276    -0.07250
C1463       C  0.87478687  0.87459728  0.33334144     0.07420
C1464       C  0.87123340  0.84623855  0.64245213    -0.06670
H1465       H  0.78623601  0.78609255  0.33334124     0.13010
H1466       H  0.84920274  0.89305515  0.37631264     0.10540
H1467       H  0.89321736  0.84898777  0.62370590     0.10390
C1468       C  0.52484381  0.83985002  0.64170943     0.07420
C1469       C  0.52479790  0.87161808  0.64162281    -0.08730
C1470       C  0.50011238  0.87510529  0.66614002     0.04920
C1471       C  0.97549139  0.84686609  0.35747466    -0.07250
C1472       C  0.97555287  0.81511721  0.35772886     0.07420
C1473       C  0.00022154  0.81156894  0.66646886    -0.06670
H1474       H  0.54390050  0.89354215  0.62255741     0.13010
H1475       H  0.95637280  0.84960341  0.37645110     0.10540
H1476       H  0.00026769  0.78697828  0.66661144     0.10390
C1477       C  0.97520823  0.65987822  0.64196552     0.07420
C1478       C  0.97529292  0.62812925  0.64185862    -0.08730
C1479       C  0.50004982  0.62468479  0.66630723     0.04920
C1480       C  0.52471162  0.65295799  0.35758432    -0.07250
C1481       C  0.52461297  0.68469170  0.35784924     0.07420
C1482       C  0.49986876  0.68818461  0.66666195    -0.06670
H1483       H  0.95616609  0.60618768  0.62283196     0.13010
H1484       H  0.54388152  0.65025630  0.37651199     0.10540
H1485       H  0.49979414  0.71276105  0.66681139     0.10390
C1486       C  0.66012748  0.97502532  0.35795703     0.07420
C1487       C  0.62837619  0.97511730  0.35806818    -0.08730
C1488       C  0.62493370  0.99987749  0.33363599     0.04920
C1489       C  0.65312663  0.52452956  0.64236012    -0.07250
C1490       C  0.68486305  0.52442564  0.64208980     0.07420
C1491       C  0.68835498  0.49968102  0.33326832    -0.06670
H1492       H  0.60643224  0.95599648  0.37709222     0.13010
H1493       H  0.65042649  0.54370081  0.62344294     0.10540
H1494       H  0.71293449  0.49960382  0.33311876     0.10390
C1495       C  0.68554866  0.66061185  0.35766743     0.07420
C1496       C  0.68912984  0.68899425  0.66664822    -0.08730
C1497       C  0.66073844  0.68540041  0.64228726     0.04920
C1498       C  0.62884819  0.65349916  0.64236831    -0.07250
C1499       C  0.62530839  0.62516475  0.66663145     0.07420
C1500       C  0.65365166  0.62871853  0.35756959    -0.06670
H1501       H  0.71382681  0.71369389  0.66665441     0.13010
H1502       H  0.60686221  0.65072456  0.62358636     0.10540
H1503       H  0.65088716  0.60673995  0.37634562     0.10390
Zn1504     Zn  0.87588110  0.66731309  0.47904047     1.49720
Zn1505     Zn  0.79168711  0.62416864  0.47875832     1.49360
Zn1506     Zn  0.83344735  0.66638893  0.56295401     1.49110
Zn1507     Zn  0.83303409  0.70834020  0.47919542     1.49480
O1508       O  0.83349526  0.66653913  0.49999493    -1.79830
O1509       O  0.86339904  0.62484057  0.44266230    -0.70460
O1510       O  0.76146665  0.59433623  0.52766125    -0.70280
O1511       O  0.87576838  0.66562098  0.58634410    -0.69800
O1512       O  0.80494110  0.59441637  0.44303136    -0.70480
O1513       O  0.90555154  0.66698423  0.52800279    -0.70080
O1514       O  0.79022196  0.62386254  0.58609202    -0.70660
O1515       O  0.83312944  0.73811447  0.52832061    -0.70050
O1516       O  0.76185569  0.63672035  0.44212274    -0.70810
O1517       O  0.83412806  0.70937754  0.58654752    -0.70200
O1518       O  0.79016221  0.69516205  0.44309485    -0.70660
O1519       O  0.87566372  0.73855130  0.44294606    -0.70570
O1520       O  0.90573779  0.71035561  0.44319738    -0.70360
C1521       C  0.83438952  0.59830618  0.43155324     0.81430
C1522       C  0.76428523  0.59775103  0.56820989     0.81920
C1523       C  0.90194463  0.66604941  0.56852612     0.80880
C1524       C  0.83376031  0.73519652  0.56884638     0.81250
C1525       C  0.76454570  0.66578652  0.43119285     0.82390
C1526       C  0.90204256  0.73600390  0.43172875     0.81440
C1527       C  0.73769029  0.66534405  0.40472554    -0.08980
C1528       C  0.71442148  0.66395830  0.38292880    -0.10540
C1529       C  0.71370299  0.54976803  0.61651499    -0.08980
C1530       C  0.73712657  0.57146737  0.59461637    -0.10540
C1531       C  0.94975650  0.66324295  0.61664155    -0.08980
C1532       C  0.92807702  0.66503798  0.59492864    -0.10540
C1533       C  0.95022283  0.78633069  0.38336330    -0.08980
C1534       C  0.92846381  0.76301344  0.40531748    -0.10540
C1535       C  0.83441072  0.76210174  0.59539544    -0.08980
C1536       C  0.83594452  0.78544175  0.61716352    -0.10540
C1537       C  0.83502866  0.57189193  0.40535985    -0.08980
C1538       C  0.83665278  0.55010556  0.38369710    -0.10540
C1539       C  0.93498551  0.93476673  0.33335176    -0.08980
C1540       C  0.90754158  0.90733250  0.33334668    -0.10540
C1541       C  0.90789030  0.99984677  0.33398887    -0.08980
C1542       C  0.93518698  0.99976751  0.33378426    -0.10540
C1543       C  0.00000199  0.93498424  0.66628250    -0.08980
C1544       C  0.50007139  0.90769014  0.66610794    -0.10540
C1545       C  0.59257503  0.59242550  0.66662681    -0.08980
C1546       C  0.56514452  0.56498817  0.66663363    -0.10540
C1547       C  0.59235096  0.99994927  0.33368988    -0.08980
C1548       C  0.56496389  0.50001023  0.33355749    -0.10540
C1549       C  0.50010467  0.59210172  0.66627032    -0.08980
C1550       C  0.50015369  0.56479422  0.66641487    -0.10540
C1551       C  0.57163447  0.73695621  0.40534812    -0.08980
C1552       C  0.54994953  0.71352674  0.38343863    -0.10540
C1553       C  0.66546870  0.73753594  0.59524703    -0.08980
C1554       C  0.66407634  0.71426569  0.61703407    -0.10540
C1555       C  0.55025869  0.83648232  0.61633990    -0.08980
C1556       C  0.57203315  0.83486171  0.59464473    -0.10540
C1557       C  0.76316804  0.92829339  0.59475780    -0.08980
C1558       C  0.78649725  0.95003949  0.61672289    -0.10540
C1559       C  0.66525598  0.92790053  0.40502206    -0.08980
C1560       C  0.66348736  0.94957912  0.38328715    -0.10540
C1561       C  0.76229521  0.83427934  0.40464746    -0.08980
C1562       C  0.78563172  0.83581226  0.38286784    -0.10540
Zn1563     Zn  0.62430719  0.79153756  0.85455350     1.49720
Zn1564     Zn  0.66746362  0.87572198  0.85428714     1.49360
Zn1565     Zn  0.70849871  0.83288504  0.85416598     1.49110
Zn1566     Zn  0.66654657  0.83327471  0.77038387     1.49480
O1567       O  0.66669126  0.83333963  0.83334219    -1.79830
O1568       O  0.59455343  0.80478504  0.89028281    -0.70460
O1569       O  0.71050990  0.90558006  0.89016435    -0.70280
O1570       O  0.69530522  0.79000928  0.89024528    -0.69800
O1571       O  0.62497326  0.86323400  0.89064920    -0.70480
O1572       O  0.63685287  0.76170783  0.89118188    -0.70080
O1573       O  0.73869981  0.87550141  0.89044847    -0.70660
O1574       O  0.70954608  0.83396189  0.74681403    -0.70050
O1575       O  0.66715629  0.90538269  0.80530248    -0.70810
O1576       O  0.73830006  0.83300102  0.80505261    -0.70200
O1577       O  0.66579248  0.87558339  0.74697596    -0.70660
O1578       O  0.62402509  0.79005158  0.74722691    -0.70570
O1579       O  0.59447402  0.76131654  0.80564392    -0.70360
C1580       C  0.59844147  0.83422770  0.90176316     0.81430
C1581       C  0.73615528  0.90187972  0.90165952     0.81920
C1582       C  0.66592082  0.76439452  0.90212472     0.80880
C1583       C  0.73537957  0.83361865  0.76452479     0.81250
C1584       C  0.66623288  0.90176697  0.76477917     0.82390
C1585       C  0.59790470  0.76412298  0.76509777     0.81440
C1586       C  0.96809056  0.99980491  0.66680146     0.06580
C1587       C  0.50010841  0.53189101  0.99996286     0.06580
C1588       C  0.53213572  0.53198024  0.99998281     0.06680
C1589       C  0.53205289  0.49996177  0.00002239     0.06580
C1590       C  0.00003734  0.96787663  0.66655615     0.06580
C1591       C  0.96800319  0.96778121  0.66668322     0.06580
C1592       C  0.84000531  0.52466726  0.69169541     0.07420
C1593       C  0.81176813  0.00004496  0.66694129    -0.08730
C1594       C  0.81529774  0.97535956  0.97569936     0.04920
C1595       C  0.84704432  0.97528028  0.97596852    -0.07250
C1596       C  0.87530074  0.99989991  0.66729815     0.07420
C1597       C  0.87177008  0.52460190  0.69180010    -0.06670
H1598       H  0.78718093  0.00010689  0.66678317     0.13010
H1599       H  0.84976867  0.95615156  0.95700149     0.10540
H1600       H  0.89370545  0.54370602  0.71085828     0.10390
C1601       C  0.83932623  0.81434566  0.97570011     0.07420
C1602       C  0.81094049  0.81078542  0.66667307    -0.08730
C1603       C  0.81452373  0.83918035  0.69097920     0.04920
C1604       C  0.84643413  0.87106745  0.69089610    -0.07250
C1605       C  0.87478687  0.87459727  0.66667478     0.07420
C1606       C  0.87122829  0.84624098  0.97578020    -0.06670
H1607       H  0.78623601  0.78609255  0.66667457     0.13010
H1608       H  0.84920274  0.89305515  0.70964599     0.10540
H1609       H  0.89321250  0.84899129  0.95703353     0.10390
C1610       C  0.52484383  0.83985016  0.97504287     0.07420
C1611       C  0.52479746  0.87161803  0.97495623    -0.08730
C1612       C  0.50011157  0.87510479  0.99947335     0.04920
C1613       C  0.97549143  0.84686607  0.69080796    -0.07250
C1614       C  0.97555291  0.81511719  0.69106215     0.07420
C1615       C  0.00022175  0.81156894  0.99980229    -0.06670
H1616       H  0.54389981  0.89354218  0.95589074     0.13010
H1617       H  0.95637284  0.84960339  0.70978440     0.10540
H1618       H  0.00026814  0.78697840  0.99994481     0.10390
C1619       C  0.97520819  0.65987818  0.97529883     0.07420
C1620       C  0.97529288  0.62812920  0.97519192    -0.08730
C1621       C  0.50004979  0.62468475  0.99964052     0.04920
C1622       C  0.52471162  0.65295799  0.69091765    -0.07250
C1623       C  0.52461297  0.68469170  0.69118257     0.07420
C1624       C  0.49986873  0.68818457  0.99999526    -0.06670
H1625       H  0.95616604  0.60618764  0.95616528     0.13010
H1626       H  0.54388152  0.65025631  0.70984533     0.10540
H1627       H  0.49979411  0.71276100  0.00014472     0.10390
C1628       C  0.66012748  0.97502532  0.69129035     0.07420
C1629       C  0.62837619  0.97511730  0.69140150    -0.08730
C1630       C  0.62493370  0.99987749  0.66696932     0.04920
C1631       C  0.65312664  0.52452956  0.97569344    -0.07250
C1632       C  0.68486306  0.52442564  0.97542312     0.07420
C1633       C  0.68835498  0.49968102  0.66660165    -0.06670
H1634       H  0.60643224  0.95599648  0.71042555     0.13010
H1635       H  0.65042650  0.54370081  0.95677626     0.10540
H1636       H  0.71293449  0.49960382  0.66645209     0.10390
C1637       C  0.68554871  0.66061190  0.69100075     0.07420
C1638       C  0.68912982  0.68899425  0.99998156    -0.08730
C1639       C  0.66073843  0.68540042  0.97562059     0.04920
C1640       C  0.62884818  0.65349916  0.97570163    -0.07250
C1641       C  0.62530837  0.62516475  0.99996477     0.07420
C1642       C  0.65365170  0.62871857  0.69090290    -0.06670
H1643       H  0.71382679  0.71369389  0.99998775     0.13010
H1644       H  0.60686220  0.65072456  0.95691967     0.10540
H1645       H  0.65088719  0.60673999  0.70967892     0.10390
Zn1646     Zn  0.87588105  0.66731318  0.81237392     1.49720
Zn1647     Zn  0.79168720  0.62416881  0.81209178     1.49360
Zn1648     Zn  0.83344742  0.66638930  0.89628771     1.49110
Zn1649     Zn  0.83303416  0.70834053  0.81252926     1.49480
O1650       O  0.83349530  0.66653939  0.83332856    -1.79830
O1651       O  0.86339903  0.62484063  0.77599572    -0.70460
O1652       O  0.76146674  0.59433637  0.86099467    -0.70280
O1653       O  0.87576840  0.66562110  0.91967756    -0.69800
O1654       O  0.80494112  0.59441645  0.77636477    -0.70480
O1655       O  0.90555150  0.66698428  0.86133619    -0.70080
O1656       O  0.79022192  0.62386276  0.91942549    -0.70660
O1657       O  0.83312973  0.73811495  0.86165462    -0.70050
O1658       O  0.76185583  0.63672053  0.77545612    -0.70810
O1659       O  0.83412834  0.70937812  0.91988163    -0.70200
O1660       O  0.79016215  0.69516223  0.77642866    -0.70660
O1661       O  0.87566378  0.73855149  0.77627968    -0.70570
O1662       O  0.90573770  0.71035564  0.77653076    -0.70360
C1663       C  0.83438951  0.59830624  0.76488664     0.81430
C1664       C  0.76428526  0.59775118  0.90154332     0.81920
C1665       C  0.90194459  0.66604945  0.90185952     0.80880
C1666       C  0.83376061  0.73519712  0.90218043     0.81250
C1667       C  0.76454576  0.66578669  0.76452640     0.82390
C1668       C  0.90204253  0.73600398  0.76506220     0.81440
C1669       C  0.73769036  0.66534419  0.73805897    -0.08980
C1670       C  0.71442154  0.66395836  0.71626215    -0.10540
C1671       C  0.71370302  0.54976805  0.94984833    -0.08980
C1672       C  0.73712661  0.57146745  0.92794975    -0.10540
C1673       C  0.94975646  0.66324291  0.94997489    -0.08980
C1674       C  0.92807697  0.66503795  0.92826200    -0.10540
C1675       C  0.95022281  0.78633067  0.71669659    -0.08980
C1676       C  0.92846377  0.76301346  0.73865082    -0.10540
C1677       C  0.83441059  0.76210231  0.92872930    -0.08980
C1678       C  0.83594315  0.78544234  0.95049624    -0.10540
C1679       C  0.83502865  0.57189197  0.73869324    -0.08980
C1680       C  0.83665277  0.55010558  0.71703049    -0.10540
C1681       C  0.93498551  0.93476672  0.66668510    -0.08980
C1682       C  0.90754158  0.90733249  0.66668002    -0.10540
C1683       C  0.90789027  0.99984675  0.66732219    -0.08980
C1684       C  0.93518696  0.99976749  0.66711760    -0.10540
C1685       C  0.99999886  0.93498259  0.99961564    -0.08980
C1686       C  0.50006937  0.90768905  0.99944090    -0.10540
C1687       C  0.59257501  0.59242550  0.99996013    -0.08980
C1688       C  0.56514451  0.56498816  0.99996696    -0.10540
C1689       C  0.59235096  0.99994927  0.66702321    -0.08980
C1690       C  0.56496389  0.50001024  0.66689083    -0.10540
C1691       C  0.50010464  0.59210168  0.99960361    -0.08980
C1692       C  0.50015368  0.56479420  0.99974818    -0.10540
C1693       C  0.57163447  0.73695621  0.73868145    -0.08980
C1694       C  0.54994953  0.71352675  0.71677195    -0.10540
C1695       C  0.66546870  0.73753594  0.92858037    -0.08980
C1696       C  0.66407634  0.71426570  0.95036740    -0.10540
C1697       C  0.55025879  0.83648262  0.94967324    -0.08980
C1698       C  0.57203317  0.83486185  0.92797807    -0.10540
C1699       C  0.76316784  0.92829331  0.92809109    -0.08980
C1700       C  0.78649691  0.95003946  0.95005624    -0.10540
C1701       C  0.66525599  0.92790053  0.73835537    -0.08980
C1702       C  0.66348736  0.94957912  0.71662047    -0.10540
C1703       C  0.76229522  0.83427934  0.73798079    -0.08980
C1704       C  0.78563172  0.83581225  0.71620118    -0.10540
loop_ 
_geom_bond_atom_site_label_1 
_geom_bond_atom_site_label_2 
_geom_bond_distance 
_geom_bond_site_symmetry_2 
_ccdc_geom_bond_type 
Zn1           O5   1.964       .  S
Zn1           O6   2.018       .  S
Zn1          O10   2.017       .  S
Zn1          O17   2.016       .  S
Zn2           O5   1.963       .  S
Zn2           O7   2.016       .  S
Zn2           O9   2.014       .  S
Zn2          O13   2.014       .  S
Zn3           O5   1.963       .  S
Zn3           O8   2.017       .  S
Zn3          O11   2.015       .  S
Zn3          O14   2.015       .  S
Zn4           O5   1.963       .  S
Zn4          O12   2.018       .  S
Zn4          O15   2.018       .  S
Zn4          O16   2.017       .  S
O6           C18   1.272       .  A
O7           C19   1.272       .  A
O8           C20   1.272       .  A
O9           C18   1.272       .  A
O10          C20   1.272       .  A
O11          C19   1.272       .  A
O12          C21   1.272       .  A
O13          C22   1.271       .  A
O14          C21   1.272       .  A
O15          C22   1.272       .  A
O16          C23   1.272       .  A
O17          C23   1.272       .  A
C18         C136   1.434       .  S
C19         C137   1.434       .  S
C20         C133   1.434       .  S
C21         C141   1.434       .  S
C22         C139   1.434       .  S
C23         C131   1.434       .  S
C24         C122   1.449       .  S
C24          C29   1.409       .  A
C24        C1587   1.409   1_554  A
C25         C130   1.449       .  S
C25          C26   1.409       .  A
C25        C1444   1.409   1_445  A
C26         C126   1.450       .  S
C26          C27   1.409   1_545  A
C27         C270   1.449   1_565  S
C27        C1448   1.409       .  A
C28         C407   1.449       .  S
C28          C29   1.409   1_556  A
C28        C1589   1.409   1_556  A
C29         C119   1.450       .  S
C30         C118   1.439       .  S
C30          C35   1.401       .  A
C30         C457   1.402       .  A
C31         C456   1.402       .  A
C31         C316   1.402   1_554  A
C31          H36   1.085       .  S
C32         C138   1.438       .  S
C32          C33   1.400       .  A
C32         C173   1.402       .  A
C33         C176   1.399       .  A
C33          H37   1.085       .  S
C34         C121   1.437       .  S
C34         C317   1.399   1_554  A
C34         C461   1.400       .  A
C35         C460   1.400   1_545  A
C35          H38   1.085       .  S
C39         C116   1.439       .  S
C39          C44   1.401       .  A
C39         C182   1.402       .  A
C40          C41   1.402       .  A
C40         C323   1.402   1_554  A
C40          H45   1.085       .  S
C41         C142   1.439       .  S
C41          C42   1.401       .  A
C42          C43   1.400       .  A
C42          H46   1.085       .  S
C43         C120   1.438   1_554  S
C43         C328   1.400   1_554  A
C44         C185   1.400       .  A
C44          H47   1.085       .  S
C48         C135   1.439       .  S
C48          C49   1.401       .  A
C48         C905   1.402       .  A
C49          C50   1.400       .  A
C49          H54   1.085       .  S
C50         C124   1.437       .  S
C50        C1045   1.399   1_455  A
C51          C52   1.400       .  A
C51        C1186   1.399   1_554  A
C51          H55   1.085       .  S
C52         C113   1.438       .  S
C52         C337   1.402   1_554  A
C53         C900   1.402       .  A
C53         C194   1.402       .  A
C53          H56   1.085       .  S
C57         C111   1.439       .  S
C57          C58   1.401       .  A
C57         C914   1.402       .  A
C58         C911   1.400       .  A
C58          H63   1.085       .  S
C59         C129   1.437       .  S
C59         C910   1.400   1_455  A
C59         C202   1.400       .  A
C60          C61   1.401       .  A
C60         C343   1.400   1_554  A
C60          H64   1.085       .  S
C61         C132   1.439       .  S
C61         C346   1.402   1_455  A
C62         C909   1.402       .  A
C62         C203   1.402   1_655  A
C62          H65   1.085       .  S
C66         C140   1.439       .  S
C66          C67   1.401       .  A
C66         C497   1.402   1_554  A
C67          C68   1.400       .  A
C67          H72   1.085       .  S
C68         C127   1.437       .  S
C68         C779   1.400   1_554  A
C69          C70   1.401       .  A
C69         C636   1.400   1_545  A
C69          H73   1.085       .  S
C70         C109   1.439       .  S
C70         C213   1.402   1_545  A
C71         C492   1.402   1_556  A
C71         C354   1.402   1_565  A
C71          H74   1.085       .  S
C75         C108   1.439       .  S
C75          C80   1.401       .  A
C75         C360   1.402   1_554  A
C76          C77   1.402       .  A
C76         C217   1.402       .  A
C76          H81   1.085       .  S
C77         C134   1.439       .  S
C77          C78   1.401       .  A
C78          C79   1.400       .  A
C78          H82   1.085       .  S
C79         C125   1.438       .  S
C79         C222   1.400       .  A
C80         C363   1.400   1_554  A
C80          H83   1.085       .  S
Zn84         O88   1.963       .  S
Zn84         O89   2.014       .  S
Zn84         O93   2.014       .  S
Zn84        O100   2.017       .  S
Zn85         O88   1.964       .  S
Zn85         O90   2.016       .  S
Zn85         O92   2.018       .  S
Zn85         O96   2.017       .  S
Zn86         O88   1.963       .  S
Zn86         O91   2.018       .  S
Zn86         O94   2.017       .  S
Zn86         O97   2.018       .  S
Zn87         O88   1.962       .  S
Zn87         O95   2.015       .  S
Zn87         O98   2.016       .  S
Zn87         O99   2.015       .  S
O89         C101   1.272       .  A
O90         C102   1.272       .  A
O91         C103   1.272       .  A
O92         C101   1.272       .  A
O93         C103   1.271       .  A
O94         C102   1.272       .  A
O95         C104   1.272       .  A
O96         C105   1.272       .  A
O97         C104   1.272       .  A
O98         C105   1.272       .  A
O99         C106   1.272       .  A
O100        C106   1.272       .  A
C101        C117   1.434       .  S
C102        C110   1.434       .  S
C103        C112   1.434       .  S
C104        C115   1.434       .  S
C105        C107   1.434       .  S
C106        C114   1.434       .  S
C107        C108   1.205       .  T
C109        C110   1.205       .  T
C111        C112   1.205       .  T
C113        C114   1.205       .  T
C115        C116   1.205       .  T
C117        C118   1.205       .  T
C119        C120   1.205   1_554  T
C121        C122   1.204       .  T
C123        C170   1.449       .  S
C123        C976   1.204       .  T
C124        C975   1.204   1_455  T
C125        C126   1.205       .  T
C127        C554   1.204       .  T
C128        C311   1.449   1_545  S
C128        C553   1.205   1_545  T
C129        C130   1.204       .  T
C131        C132   1.205       .  T
C133        C134   1.205       .  T
C135        C136   1.205       .  T
C137        C138   1.205       .  T
C139        C140   1.205       .  T
C141        C142   1.205       .  T
Zn143       O147   1.964       .  S
Zn143       O148   2.018       .  S
Zn143       O152   2.017       .  S
Zn143       O159   2.016       .  S
Zn144       O147   1.963       .  S
Zn144       O149   2.016       .  S
Zn144       O151   2.014       .  S
Zn144       O155   2.014       .  S
Zn145       O147   1.963       .  S
Zn145       O150   2.017       .  S
Zn145       O153   2.015       .  S
Zn145       O156   2.015       .  S
Zn146       O147   1.963       .  S
Zn146       O154   2.018       .  S
Zn146       O157   2.018       .  S
Zn146       O158   2.017       .  S
O148        C160   1.272       .  A
O149        C161   1.272       .  A
O150        C162   1.272       .  A
O151        C160   1.272       .  A
O152        C162   1.272       .  A
O153        C161   1.272       .  A
O154        C163   1.272       .  A
O155        C164   1.271       .  A
O156        C163   1.272       .  A
O157        C164   1.272       .  A
O158        C165   1.272       .  A
O159        C165   1.272       .  A
C160        C278   1.434       .  S
C161        C279   1.434       .  S
C162        C275   1.434       .  S
C163        C283   1.434       .  S
C164        C281   1.434       .  S
C165        C273   1.434       .  S
C166        C264   1.449       .  S
C166       C1303   1.409       .  A
C166        C171   1.409       .  A
C167        C272   1.449       .  S
C167       C1586   1.409   1_445  A
C167        C168   1.409       .  A
C168        C268   1.450       .  S
C168        C169   1.409   1_545  A
C169        C412   1.449   1_565  S
C169       C1590   1.409       .  A
C170       C1305   1.409       .  A
C170        C171   1.409       .  A
C171        C261   1.450       .  S
C172        C260   1.439       .  S
C172        C599   1.402       .  A
C172        C177   1.401       .  A
C173        C598   1.402       .  A
C173        H178   1.085       .  S
C174        C280   1.438       .  S
C174        C315   1.402       .  A
C174        C175   1.400       .  A
C175        C318   1.399       .  A
C175        H179   1.085       .  S
C176        C263   1.437       .  S
C176        C603   1.400       .  A
C177        C602   1.400   1_545  A
C177        H180   1.085       .  S
C181        C258   1.439       .  S
C181        C324   1.402       .  A
C181        C186   1.401       .  A
C182        C183   1.402       .  A
C182        H187   1.085       .  S
C183        C284   1.439       .  S
C183        C184   1.401       .  A
C184        C185   1.400       .  A
C184        H188   1.085       .  S
C185        C262   1.438       .  S
C186        C327   1.400       .  A
C186        H189   1.085       .  S
C190        C277   1.439       .  S
C190        C191   1.401       .  A
C190       C1047   1.402       .  A
C191        C192   1.400       .  A
C191        H196   1.085       .  S
C192        C266   1.437       .  S
C192       C1187   1.399   1_455  A
C193        C902   1.399       .  A
C193        C194   1.400       .  A
C193        H197   1.085       .  S
C194        C255   1.438       .  S
C195       C1042   1.402       .  A
C195        C336   1.402       .  A
C195        H198   1.085       .  S
C199        C253   1.439       .  S
C199        C200   1.401       .  A
C199       C1056   1.402       .  A
C200       C1053   1.400       .  A
C200        H205   1.085       .  S
C201        C271   1.437       .  S
C201       C1052   1.400   1_455  A
C201        C344   1.400       .  A
C202        C203   1.401       .  A
C202        H206   1.085       .  S
C203        C274   1.439       .  S
C204       C1051   1.402       .  A
C204        C345   1.402   1_655  A
C204        H207   1.085       .  S
C208        C282   1.439       .  S
C208        C209   1.401       .  A
C208        C639   1.402       .  A
C209        C210   1.400       .  A
C209        H214   1.085       .  S
C210        C269   1.437       .  S
C210        C495   1.400       .  A
C211        C778   1.400   1_545  A
C211        C212   1.401       .  A
C211        H215   1.085       .  S
C212        C251   1.439       .  S
C212        C355   1.402   1_545  A
C213        C634   1.402       .  A
C213        H216   1.085       .  S
C217        C250   1.439       .  S
C217        C222   1.401       .  A
C218        C359   1.402       .  A
C218        C219   1.402       .  A
C218        H223   1.085       .  S
C219        C276   1.439       .  S
C219        C220   1.401       .  A
C220        C221   1.400       .  A
C220        H224   1.085       .  S
C221        C267   1.438       .  S
C221        C364   1.400       .  A
C222        H225   1.085       .  S
Zn226       O230   1.963       .  S
Zn226       O231   2.014       .  S
Zn226       O235   2.014       .  S
Zn226       O242   2.017       .  S
Zn227       O230   1.964       .  S
Zn227       O232   2.016       .  S
Zn227       O234   2.018       .  S
Zn227       O238   2.017       .  S
Zn228       O230   1.963       .  S
Zn228       O233   2.018       .  S
Zn228       O236   2.017       .  S
Zn228       O239   2.018       .  S
Zn229       O230   1.962       .  S
Zn229       O237   2.015       .  S
Zn229       O240   2.016       .  S
Zn229       O241   2.015       .  S
O231        C243   1.272       .  A
O232        C244   1.272       .  A
O233        C245   1.272       .  A
O234        C243   1.272       .  A
O235        C245   1.271       .  A
O236        C244   1.272       .  A
O237        C246   1.272       .  A
O238        C247   1.272       .  A
O239        C246   1.272       .  A
O240        C247   1.272       .  A
O241        C248   1.272       .  A
O242        C248   1.272       .  A
C243        C259   1.434       .  S
C244        C252   1.434       .  S
C245        C254   1.434       .  S
C246        C257   1.434       .  S
C247        C249   1.434       .  S
C248        C256   1.434       .  S
C249        C250   1.205       .  T
C251        C252   1.205       .  T
C253        C254   1.205       .  T
C255        C256   1.205       .  T
C257        C258   1.205       .  T
C259        C260   1.205       .  T
C261        C262   1.205       .  T
C263        C264   1.204       .  T
C265        C312   1.449       .  S
C265       C1118   1.204       .  T
C266       C1117   1.204   1_455  T
C267        C268   1.205       .  T
C269        C696   1.204       .  T
C270        C695   1.205   1_545  T
C271        C272   1.204       .  T
C273        C274   1.205       .  T
C275        C276   1.205       .  T
C277        C278   1.205       .  T
C279        C280   1.205       .  T
C281        C282   1.205       .  T
C283        C284   1.205       .  T
Zn285       O289   1.964       .  S
Zn285       O290   2.018       .  S
Zn285       O294   2.017       .  S
Zn285       O301   2.016       .  S
Zn286       O289   1.963       .  S
Zn286       O291   2.016       .  S
Zn286       O293   2.014       .  S
Zn286       O297   2.014       .  S
Zn287       O289   1.963       .  S
Zn287       O292   2.017       .  S
Zn287       O295   2.015       .  S
Zn287       O298   2.015       .  S
Zn288       O289   1.963       .  S
Zn288       O296   2.018       .  S
Zn288       O299   2.018       .  S
Zn288       O300   2.017       .  S
O290        C302   1.272       .  A
O291        C303   1.272       .  A
O292        C304   1.272       .  A
O293        C302   1.272       .  A
O294        C304   1.272       .  A
O295        C303   1.272       .  A
O296        C305   1.272       .  A
O297        C306   1.271       .  A
O298        C305   1.272       .  A
O299        C306   1.272       .  A
O300        C307   1.272       .  A
O301        C307   1.272       .  A
C302        C420   1.434       .  S
C303        C421   1.434       .  S
C304        C417   1.434       .  S
C305        C425   1.434       .  S
C306        C423   1.434       .  S
C307        C415   1.434       .  S
C308        C406   1.449       .  S
C308       C1445   1.409       .  A
C308        C313   1.409       .  A
C309        C414   1.449       .  S
C309       C1302   1.409   1_446  A
C309        C310   1.409       .  A
C310        C410   1.450       .  S
C310        C311   1.409   1_546  A
C311       C1306   1.409   1_554  A
C312       C1447   1.409       .  A
C312        C313   1.409       .  A
C313        C403   1.450       .  S
C314        C402   1.439       .  S
C314        C741   1.402       .  A
C314        C319   1.401       .  A
C315        C740   1.402       .  A
C315        H320   1.085       .  S
C316        C422   1.438       .  S
C316        C317   1.400       .  A
C317        H321   1.085       .  S
C318        C405   1.437       .  S
C318        C745   1.400       .  A
C319        C744   1.400   1_545  A
C319        H322   1.085       .  S
C323        C400   1.439       .  S
C323        C328   1.401       .  A
C324        C325   1.402       .  A
C324        H329   1.085       .  S
C325        C426   1.439       .  S
C325        C326   1.401       .  A
C326        C327   1.400       .  A
C326        H330   1.085       .  S
C327        C404   1.438       .  S
C328        H331   1.085       .  S
C332        C419   1.439       .  S
C332        C333   1.401       .  A
C332       C1189   1.402       .  A
C333        C334   1.400       .  A
C333        H338   1.085       .  S
C334        C408   1.437       .  S
C334        C903   1.399   1_456  A
C335       C1044   1.399       .  A
C335        C336   1.400       .  A
C335        H339   1.085       .  S
C336        C397   1.438       .  S
C337       C1184   1.402       .  A
C337        H340   1.085       .  S
C341        C395   1.439       .  S
C341        C342   1.401       .  A
C341       C1198   1.402   1_556  A
C342       C1195   1.400       .  A
C342        H347   1.085       .  S
C343        C413   1.437       .  S
C343       C1194   1.400   1_455  A
C344        C345   1.401       .  A
C344        H348   1.085       .  S
C345        C416   1.439       .  S
C346       C1193   1.402   1_554  A
C346        H349   1.085       .  S
C350        C424   1.439       .  S
C350        C351   1.401       .  A
C350        C781   1.402       .  A
C351        C352   1.400       .  A
C351        H356   1.085       .  S
C352        C411   1.437       .  S
C352        C637   1.400       .  A
C353        C494   1.400   1_546  A
C353        C354   1.401       .  A
C353        H357   1.085       .  S
C354        C393   1.439       .  S
C355        C776   1.402       .  A
C355        H358   1.085       .  S
C359        C392   1.439       .  S
C359        C364   1.401       .  A
C360        C361   1.402       .  A
C360        H365   1.085   1_556  S
C361        C418   1.439       .  S
C361        C362   1.401       .  A
C362        C363   1.400       .  A
C362        H366   1.085       .  S
C363        C409   1.438       .  S
C364        H367   1.085       .  S
Zn368       O372   1.963       .  S
Zn368       O373   2.014       .  S
Zn368       O377   2.014       .  S
Zn368       O384   2.017       .  S
Zn369       O372   1.964       .  S
Zn369       O374   2.016       .  S
Zn369       O376   2.018       .  S
Zn369       O380   2.017       .  S
Zn370       O372   1.963       .  S
Zn370       O375   2.018       .  S
Zn370       O378   2.017       .  S
Zn370       O381   2.018       .  S
Zn371       O372   1.962       .  S
Zn371       O379   2.015       .  S
Zn371       O382   2.016       .  S
Zn371       O383   2.015       .  S
O373        C385   1.272       .  A
O374        C386   1.272       .  A
O375        C387   1.272       .  A
O376        C385   1.272       .  A
O377        C387   1.271       .  A
O378        C386   1.272       .  A
O379        C388   1.272       .  A
O380        C389   1.272       .  A
O381        C388   1.272       .  A
O382        C389   1.272       .  A
O383        C390   1.272       .  A
O384        C390   1.272       .  A
C385        C401   1.434       .  S
C386        C394   1.434       .  S
C387        C396   1.434       .  S
C388        C399   1.434       .  S
C389        C391   1.434       .  S
C390        C398   1.434       .  S
C391        C392   1.205       .  T
C393        C394   1.205       .  T
C395        C396   1.205       .  T
C397        C398   1.205       .  T
C399        C400   1.205       .  T
C401        C402   1.205       .  T
C403        C404   1.205       .  T
C405        C406   1.204       .  T
C407       C1260   1.204       .  T
C408       C1259   1.204   1_455  T
C409        C410   1.205       .  T
C411        C838   1.204       .  T
C412        C837   1.205   1_545  T
C413        C414   1.204       .  T
C415        C416   1.205       .  T
C417        C418   1.205       .  T
C419        C420   1.205       .  T
C421        C422   1.205       .  T
C423        C424   1.205       .  T
C425        C426   1.205       .  T
Zn427       O431   1.964       .  S
Zn427       O432   2.018       .  S
Zn427       O436   2.017       .  S
Zn427       O443   2.016       .  S
Zn428       O431   1.963       .  S
Zn428       O433   2.017       .  S
Zn428       O435   2.014       .  S
Zn428       O439   2.014       .  S
Zn429       O431   1.962       .  S
Zn429       O434   2.017       .  S
Zn429       O437   2.015       .  S
Zn429       O440   2.016       .  S
Zn430       O431   1.963       .  S
Zn430       O438   2.018       .  S
Zn430       O441   2.018       .  S
Zn430       O442   2.017       .  S
O432        C444   1.272       .  A
O433        C445   1.272       .  A
O434        C446   1.272       .  A
O435        C444   1.272       .  A
O436        C446   1.272       .  A
O437        C445   1.272       .  A
O438        C447   1.272       .  A
O439        C448   1.271       .  A
O440        C447   1.272       .  A
O441        C448   1.272       .  A
O442        C449   1.272       .  A
O443        C449   1.272       .  A
C444        C562   1.434       .  S
C445        C563   1.434       .  S
C446        C559   1.434       .  S
C447        C567   1.434       .  S
C448        C565   1.434       .  S
C449        C557   1.434       .  S
C450        C548   1.449       .  S
C450       C1161   1.409   1_564  A
C450        C455   1.409       .  A
C451        C556   1.449       .  S
C451       C1018   1.409   1_455  A
C451        C452   1.409       .  A
C452        C552   1.450       .  S
C452        C453   1.409       .  A
C453        C696   1.449       .  S
C453       C1022   1.409   1_455  A
C454        C833   1.449       .  S
C454       C1163   1.409   1_556  A
C454        C455   1.409   1_556  A
C455        C545   1.450       .  S
C456        C544   1.438       .  S
C456        C461   1.401       .  A
C457        C742   1.402   1_544  A
C457        H462   1.085       .  S
C458        C564   1.438       .  S
C458        C599   1.402   1_565  A
C458        C459   1.401       .  A
C459        C602   1.400       .  A
C459        H463   1.085       .  S
C460        C547   1.437       .  S
C460        C743   1.400   1_554  A
C461        H464   1.085       .  S
C465        C542   1.439       .  S
C465        C608   1.402       .  A
C465        C470   1.401       .  A
C466        C749   1.402   1_554  A
C466        C467   1.402       .  A
C466        H471   1.085       .  S
C467        C568   1.439       .  S
C467        C468   1.401       .  A
C468        C469   1.400       .  A
C468        H472   1.085       .  S
C469        C546   1.438       .  S
C469        C754   1.400   1_554  A
C470        C611   1.400       .  A
C470        H473   1.085       .  S
C474        C561   1.438       .  S
C474        C475   1.401       .  A
C474       C1331   1.402       .  A
C475        C476   1.400       .  A
C475        H480   1.085       .  S
C476        C550   1.437       .  S
C476       C1471   1.399   1_455  A
C477       C1612   1.399   1_554  A
C477        C478   1.400       .  A
C477        H481   1.085       .  S
C478        C539   1.438       .  S
C478        C763   1.402   1_554  A
C479       C1326   1.402       .  A
C479        C620   1.402       .  A
C479        H482   1.085       .  S
C483        C537   1.439       .  S
C483        C484   1.401       .  A
C483       C1340   1.402       .  A
C484       C1337   1.400       .  A
C484        H489   1.085       .  S
C485        C555   1.437       .  S
C485       C1336   1.400   1_455  A
C485        C628   1.400       .  A
C486        C769   1.400   1_554  A
C486        C487   1.401       .  A
C486        H490   1.085       .  S
C487        C558   1.439       .  S
C487        C772   1.402   1_454  A
C488       C1335   1.402       .  A
C488        C629   1.402   1_655  A
C488        H491   1.085       .  S
C492        C566   1.439       .  S
C492        C493   1.401       .  A
C493        C494   1.400       .  A
C493        H498   1.085       .  S
C494        C553   1.437       .  S
C495        C496   1.401       .  A
C495        H499   1.085       .  S
C496        C535   1.439       .  S
C496        C639   1.402       .  A
C497        C780   1.402       .  A
C497        H500   1.085       .  S
C501        C534   1.439       .  S
C501        C786   1.402   1_554  A
C501        C506   1.401       .  A
C502        C643   1.402       .  A
C502        C503   1.402       .  A
C502        H507   1.085       .  S
C503        C560   1.439       .  S
C503        C504   1.401       .  A
C504        C505   1.400       .  A
C504        H508   1.085       .  S
C505        C551   1.438       .  S
C505        C648   1.400       .  A
C506        C789   1.400   1_554  A
C506        H509   1.085       .  S
Zn510       O514   1.963       .  S
Zn510       O515   2.014       .  S
Zn510       O519   2.014       .  S
Zn510       O526   2.016       .  S
Zn511       O514   1.964       .  S
Zn511       O516   2.016       .  S
Zn511       O518   2.018       .  S
Zn511       O522   2.017       .  S
Zn512       O514   1.963       .  S
Zn512       O517   2.018       .  S
Zn512       O520   2.017       .  S
Zn512       O523   2.018       .  S
Zn513       O514   1.962       .  S
Zn513       O521   2.015       .  S
Zn513       O524   2.017       .  S
Zn513       O525   2.015       .  S
O515        C527   1.272       .  A
O516        C528   1.272       .  A
O517        C529   1.272       .  A
O518        C527   1.272       .  A
O519        C529   1.271       .  A
O520        C528   1.272       .  A
O521        C530   1.272       .  A
O522        C531   1.272       .  A
O523        C530   1.272       .  A
O524        C531   1.272       .  A
O525        C532   1.272       .  A
O526        C532   1.272       .  A
C527        C543   1.434       .  S
C528        C536   1.434       .  S
C529        C538   1.434       .  S
C530        C541   1.434       .  S
C531        C533   1.434       .  S
C532        C540   1.434       .  S
C533        C534   1.205       .  T
C535        C536   1.205       .  T
C537        C538   1.205       .  T
C539        C540   1.205       .  T
C541        C542   1.206       .  T
C543        C544   1.205       .  T
C545        C546   1.205       .  T
C547        C548   1.204       .  T
C549        C596   1.449       .  S
C549       C1402   1.204       .  T
C550       C1401   1.204       .  T
C551        C552   1.205       .  T
C554        C737   1.449       .  S
C555        C556   1.204       .  T
C557        C558   1.205       .  T
C559        C560   1.205       .  T
C561        C562   1.205       .  T
C563        C564   1.205       .  T
C565        C566   1.205       .  T
C567        C568   1.206       .  T
Zn569       O573   1.964       .  S
Zn569       O574   2.018       .  S
Zn569       O578   2.017       .  S
Zn569       O585   2.016       .  S
Zn570       O573   1.963       .  S
Zn570       O575   2.017       .  S
Zn570       O577   2.014       .  S
Zn570       O581   2.014       .  S
Zn571       O573   1.962       .  S
Zn571       O576   2.017       .  S
Zn571       O579   2.015       .  S
Zn571       O582   2.016       .  S
Zn572       O573   1.963       .  S
Zn572       O580   2.018       .  S
Zn572       O583   2.018       .  S
Zn572       O584   2.017       .  S
O574        C586   1.272       .  A
O575        C587   1.272       .  A
O576        C588   1.272       .  A
O577        C586   1.272       .  A
O578        C588   1.272       .  A
O579        C587   1.272       .  A
O580        C589   1.272       .  A
O581        C590   1.271       .  A
O582        C589   1.272       .  A
O583        C590   1.272       .  A
O584        C591   1.272       .  A
O585        C591   1.272       .  A
C586        C704   1.434       .  S
C587        C705   1.434       .  S
C588        C701   1.434       .  S
C589        C709   1.434       .  S
C590        C707   1.434       .  S
C591        C699   1.434       .  S
C592        C690   1.449       .  S
C592        C877   1.409   1_565  A
C592        C597   1.409       .  A
C593        C698   1.449       .  S
C593       C1160   1.409   1_455  A
C593        C594   1.409       .  A
C594        C694   1.450       .  S
C594        C595   1.409       .  A
C595        C838   1.449       .  S
C595       C1164   1.409   1_455  A
C596        C879   1.409       .  A
C596        C597   1.409       .  A
C597        C687   1.450       .  S
C598        C686   1.438       .  S
C598        C603   1.401       .  A
C599        H604   1.085       .  S
C600        C706   1.438       .  S
C600        C741   1.402   1_565  A
C600        C601   1.401       .  A
C601        C744   1.400       .  A
C601        H605   1.085       .  S
C602        C689   1.437       .  S
C603        H606   1.085       .  S
C607        C684   1.439       .  S
C607        C750   1.402       .  A
C607        C612   1.401       .  A
C608        C609   1.402       .  A
C608        H613   1.085       .  S
C609        C710   1.439       .  S
C609        C610   1.401       .  A
C610        C611   1.400       .  A
C610        H614   1.085       .  S
C611        C688   1.438       .  S
C612        C753   1.400       .  A
C612        H615   1.085       .  S
C616        C703   1.438       .  S
C616        C617   1.401       .  A
C616       C1473   1.402       .  A
C617        C618   1.400       .  A
C617        H622   1.085       .  S
C618        C692   1.437       .  S
C618       C1613   1.399   1_455  A
C619       C1328   1.399       .  A
C619        C620   1.400       .  A
C619        H623   1.085       .  S
C620        C681   1.438       .  S
C621       C1468   1.402       .  A
C621        C762   1.402       .  A
C621        H624   1.085       .  S
C625        C679   1.439       .  S
C625        C626   1.401       .  A
C625       C1482   1.402       .  A
C626       C1479   1.400       .  A
C626        H631   1.085       .  S
C627        C697   1.437       .  S
C627       C1478   1.400   1_455  A
C627        C770   1.400       .  A
C628        C629   1.401       .  A
C628        H632   1.085       .  S
C629        C700   1.439       .  S
C630       C1477   1.402       .  A
C630        C771   1.402   1_655  A
C630        H633   1.085       .  S
C634        C708   1.439       .  S
C634        C635   1.401       .  A
C635        C636   1.400       .  A
C635        H640   1.085       .  S
C636        C695   1.437       .  S
C637        C638   1.401       .  A
C637        H641   1.085       .  S
C638        C677   1.439       .  S
C638        C781   1.402       .  A
C639        H642   1.085       .  S
C643        C676   1.439       .  S
C643        C648   1.401       .  A
C644        C785   1.402       .  A
C644        C645   1.402       .  A
C644        H649   1.085       .  S
C645        C702   1.439       .  S
C645        C646   1.401       .  A
C646        C647   1.400       .  A
C646        H650   1.085       .  S
C647        C693   1.438       .  S
C647        C790   1.400       .  A
C648        H651   1.085       .  S
Zn652       O656   1.963       .  S
Zn652       O657   2.014       .  S
Zn652       O661   2.014       .  S
Zn652       O668   2.016       .  S
Zn653       O656   1.964       .  S
Zn653       O658   2.016       .  S
Zn653       O660   2.018       .  S
Zn653       O664   2.017       .  S
Zn654       O656   1.963       .  S
Zn654       O659   2.018       .  S
Zn654       O662   2.017       .  S
Zn654       O665   2.018       .  S
Zn655       O656   1.962       .  S
Zn655       O663   2.015       .  S
Zn655       O666   2.017       .  S
Zn655       O667   2.015       .  S
O657        C669   1.272       .  A
O658        C670   1.272       .  A
O659        C671   1.272       .  A
O660        C669   1.272       .  A
O661        C671   1.271       .  A
O662        C670   1.272       .  A
O663        C672   1.272       .  A
O664        C673   1.272       .  A
O665        C672   1.272       .  A
O666        C673   1.272       .  A
O667        C674   1.272       .  A
O668        C674   1.272       .  A
C669        C685   1.434       .  S
C670        C678   1.434       .  S
C671        C680   1.434       .  S
C672        C683   1.434       .  S
C673        C675   1.434       .  S
C674        C682   1.434       .  S
C675        C676   1.205       .  T
C677        C678   1.205       .  T
C679        C680   1.205       .  T
C681        C682   1.205       .  T
C683        C684   1.206       .  T
C685        C686   1.205       .  T
C687        C688   1.205       .  T
C689        C690   1.204       .  T
C691        C738   1.449       .  S
C691       C1544   1.204       .  T
C692       C1543   1.204       .  T
C693        C694   1.205       .  T
C697        C698   1.204       .  T
C699        C700   1.205       .  T
C701        C702   1.205       .  T
C703        C704   1.205       .  T
C705        C706   1.205       .  T
C707        C708   1.205       .  T
C709        C710   1.206       .  T
Zn711       O715   1.964       .  S
Zn711       O716   2.018       .  S
Zn711       O720   2.017       .  S
Zn711       O727   2.016       .  S
Zn712       O715   1.963       .  S
Zn712       O717   2.017       .  S
Zn712       O719   2.014       .  S
Zn712       O723   2.014       .  S
Zn713       O715   1.962       .  S
Zn713       O718   2.017       .  S
Zn713       O721   2.015       .  S
Zn713       O724   2.016       .  S
Zn714       O715   1.963       .  S
Zn714       O722   2.018       .  S
Zn714       O725   2.018       .  S
Zn714       O726   2.017       .  S
O716        C728   1.272       .  A
O717        C729   1.272       .  A
O718        C730   1.272       .  A
O719        C728   1.272       .  A
O720        C730   1.272       .  A
O721        C729   1.272       .  A
O722        C731   1.272       .  A
O723        C732   1.271       .  A
O724        C731   1.272       .  A
O725        C732   1.272       .  A
O726        C733   1.272       .  A
O727        C733   1.272       .  A
C728        C846   1.434       .  S
C729        C847   1.434       .  S
C730        C843   1.434       .  S
C731        C851   1.434       .  S
C732        C849   1.434       .  S
C733        C841   1.434       .  S
C734        C832   1.449       .  S
C734       C1019   1.409   1_565  A
C734        C739   1.409       .  A
C735        C840   1.449       .  S
C735        C876   1.409   1_456  A
C735        C736   1.409       .  A
C736        C836   1.450       .  S
C736        C737   1.409   1_556  A
C737        C880   1.409   1_454  A
C738       C1021   1.409       .  A
C738        C739   1.409       .  A
C739        C829   1.450       .  S
C740        C828   1.438       .  S
C740        C745   1.401       .  A
C741        H746   1.085       .  S
C742        C848   1.438       .  S
C742        C743   1.401       .  A
C743        H747   1.085       .  S
C744        C831   1.437       .  S
C745        H748   1.085       .  S
C749        C826   1.439       .  S
C749        C754   1.401       .  A
C750        C751   1.402       .  A
C750        H755   1.085       .  S
C751        C852   1.439       .  S
C751        C752   1.401       .  A
C752        C753   1.400       .  A
C752        H756   1.085       .  S
C753        C830   1.438       .  S
C754        H757   1.085       .  S
C758        C845   1.438       .  S
C758        C759   1.401       .  A
C758       C1615   1.402       .  A
C759        C760   1.400       .  A
C759        H764   1.085       .  S
C760        C834   1.437       .  S
C760       C1329   1.399   1_456  A
C761       C1470   1.399       .  A
C761        C762   1.400       .  A
C761        H765   1.085       .  S
C762        C823   1.438       .  S
C763       C1610   1.402       .  A
C763        H766   1.085       .  S
C767        C821   1.439       .  S
C767        C768   1.401       .  A
C767       C1624   1.402       .  A
C768       C1621   1.400       .  A
C768        H773   1.085       .  S
C769        C839   1.437       .  S
C769       C1620   1.400   1_455  A
C770        C771   1.401       .  A
C770        H774   1.085       .  S
C771        C842   1.439       .  S
C772       C1619   1.402       .  A
C772        H775   1.085   1_556  S
C776        C850   1.439       .  S
C776        C777   1.401       .  A
C777        C778   1.400       .  A
C777        H782   1.085       .  S
C778        C837   1.437       .  S
C779        C780   1.401       .  A
C779        H783   1.085       .  S
C780        C819   1.439       .  S
C781        H784   1.085       .  S
C785        C818   1.439       .  S
C785        C790   1.401       .  A
C786        C787   1.402       .  A
C786        H791   1.085       .  S
C787        C844   1.439       .  S
C787        C788   1.401       .  A
C788        C789   1.400       .  A
C788        H792   1.085       .  S
C789        C835   1.438       .  S
C790        H793   1.085       .  S
Zn794       O798   1.963       .  S
Zn794       O799   2.014       .  S
Zn794       O803   2.014       .  S
Zn794       O810   2.016       .  S
Zn795       O798   1.964       .  S
Zn795       O800   2.016       .  S
Zn795       O802   2.018       .  S
Zn795       O806   2.017       .  S
Zn796       O798   1.963       .  S
Zn796       O801   2.018       .  S
Zn796       O804   2.017       .  S
Zn796       O807   2.018       .  S
Zn797       O798   1.962       .  S
Zn797       O805   2.015       .  S
Zn797       O808   2.017       .  S
Zn797       O809   2.015       .  S
O799        C811   1.272       .  A
O800        C812   1.272       .  A
O801        C813   1.272       .  A
O802        C811   1.272       .  A
O803        C813   1.271       .  A
O804        C812   1.272       .  A
O805        C814   1.272       .  A
O806        C815   1.272       .  A
O807        C814   1.272       .  A
O808        C815   1.272       .  A
O809        C816   1.272       .  A
O810        C816   1.272       .  A
C811        C827   1.434       .  S
C812        C820   1.434       .  S
C813        C822   1.434       .  S
C814        C825   1.434       .  S
C815        C817   1.434       .  S
C816        C824   1.434       .  S
C817        C818   1.205       .  T
C819        C820   1.205       .  T
C821        C822   1.205       .  T
C823        C824   1.205       .  T
C825        C826   1.206       .  T
C827        C828   1.205       .  T
C829        C830   1.205       .  T
C831        C832   1.204       .  T
C833       C1686   1.204       .  T
C834       C1685   1.204   1_455  T
C835        C836   1.205       .  T
C839        C840   1.204       .  T
C841        C842   1.205       .  T
C843        C844   1.205       .  T
C845        C846   1.205       .  T
C847        C848   1.205       .  T
C849        C850   1.205       .  T
C851        C852   1.206       .  T
Zn853       O857   1.964       .  S
Zn853       O858   2.018       .  S
Zn853       O862   2.017       .  S
Zn853       O869   2.016       .  S
Zn854       O857   1.963       .  S
Zn854       O859   2.016       .  S
Zn854       O861   2.014       .  S
Zn854       O865   2.014       .  S
Zn855       O857   1.963       .  S
Zn855       O860   2.017       .  S
Zn855       O863   2.015       .  S
Zn855       O866   2.015       .  S
Zn856       O857   1.963       .  S
Zn856       O864   2.018       .  S
Zn856       O867   2.018       .  S
Zn856       O868   2.017       .  S
O858        C870   1.272       .  A
O859        C871   1.272       .  A
O860        C872   1.272       .  A
O861        C870   1.272       .  A
O862        C872   1.272       .  A
O863        C871   1.272       .  A
O864        C873   1.272       .  A
O865        C874   1.271       .  A
O866        C873   1.272       .  A
O867        C874   1.272       .  A
O868        C875   1.272       .  A
O869        C875   1.272       .  A
C870        C988   1.434       .  S
C871        C989   1.434       .  S
C872        C985   1.434       .  S
C873        C993   1.434       .  S
C874        C991   1.434       .  S
C875        C983   1.434       .  S
C876        C974   1.449       .  S
C876        C881   1.409       .  A
C877        C982   1.449       .  S
C877        C878   1.409       .  A
C878        C978   1.450       .  S
C878        C879   1.409   1_545  A
C879       C1122   1.449   1_565  S
C880       C1259   1.449       .  S
C880        C881   1.409   1_556  A
C881        C971   1.450       .  S
C882        C970   1.439       .  S
C882       C1309   1.402       .  A
C882        C887   1.401       .  A
C883       C1308   1.402       .  A
C883       C1168   1.402   1_554  A
C883        H888   1.085       .  S
C884        C990   1.438       .  S
C884       C1025   1.402       .  A
C884        C885   1.400       .  A
C885       C1028   1.399       .  A
C885        H889   1.085       .  S
C886        C973   1.437       .  S
C886       C1169   1.399   1_554  A
C886       C1313   1.400       .  A
C887       C1312   1.400   1_545  A
C887        H890   1.085       .  S
C891        C968   1.439       .  S
C891       C1034   1.402       .  A
C891        C896   1.401       .  A
C892       C1175   1.402   1_554  A
C892        C893   1.402       .  A
C892        H897   1.085       .  S
C893        C994   1.439       .  S
C893        C894   1.401       .  A
C894        C895   1.400       .  A
C894        H898   1.085       .  S
C895        C972   1.438   1_554  S
C895       C1180   1.400   1_554  A
C896       C1037   1.400       .  A
C896        H899   1.085       .  S
C900        C987   1.439       .  S
C900        C901   1.401       .  A
C901        C902   1.400       .  A
C901        H906   1.085       .  S
C902        C976   1.437       .  S
C903        C904   1.400       .  A
C903        H907   1.085       .  S
C904        C965   1.438       .  S
C904       C1189   1.402   1_654  A
C905       C1046   1.402   1_455  A
C905        H908   1.085       .  S
C909        C963   1.439       .  S
C909        C910   1.401       .  A
C910        H915   1.085       .  S
C911        C981   1.437       .  S
C911       C1054   1.400       .  A
C912       C1195   1.400   1_554  A
C912        C913   1.401       .  A
C912        H916   1.085       .  S
C913        C984   1.439       .  S
C913       C1198   1.402       .  A
C914       C1055   1.402       .  A
C914        H917   1.085       .  S
C918        C992   1.439       .  S
C918        C919   1.401       .  A
C918       C1349   1.402   1_554  A
C919        C920   1.400       .  A
C919        H924   1.085       .  S
C920        C979   1.437       .  S
C920       C1631   1.400   1_554  A
C921       C1488   1.400   1_545  A
C921        C922   1.401       .  A
C921        H925   1.085       .  S
C922        C961   1.439       .  S
C922       C1065   1.402   1_545  A
C923       C1344   1.402   1_556  A
C923       C1206   1.402   1_565  A
C923        H926   1.085       .  S
C927        C960   1.439       .  S
C927       C1212   1.402   1_554  A
C927        C932   1.401       .  A
C928       C1069   1.402       .  A
C928        C929   1.402       .  A
C928        H933   1.085       .  S
C929        C986   1.439       .  S
C929        C930   1.401       .  A
C930        C931   1.400       .  A
C930        H934   1.085       .  S
C931        C977   1.438       .  S
C931       C1074   1.400       .  A
C932       C1215   1.400   1_554  A
C932        H935   1.085       .  S
Zn936       O940   1.963       .  S
Zn936       O941   2.014       .  S
Zn936       O945   2.014       .  S
Zn936       O952   2.017       .  S
Zn937       O940   1.964       .  S
Zn937       O942   2.016       .  S
Zn937       O944   2.018       .  S
Zn937       O948   2.017       .  S
Zn938       O940   1.963       .  S
Zn938       O943   2.018       .  S
Zn938       O946   2.017       .  S
Zn938       O949   2.018       .  S
Zn939       O940   1.962       .  S
Zn939       O947   2.015       .  S
Zn939       O950   2.016       .  S
Zn939       O951   2.015       .  S
O941        C953   1.272       .  A
O942        C954   1.272       .  A
O943        C955   1.272       .  A
O944        C953   1.272       .  A
O945        C955   1.271       .  A
O946        C954   1.272       .  A
O947        C956   1.272       .  A
O948        C957   1.272       .  A
O949        C956   1.272       .  A
O950        C957   1.272       .  A
O951        C958   1.272       .  A
O952        C958   1.272       .  A
C953        C969   1.434       .  S
C954        C962   1.434       .  S
C955        C964   1.434       .  S
C956        C967   1.434       .  S
C957        C959   1.434       .  S
C958        C966   1.434       .  S
C959        C960   1.205       .  T
C961        C962   1.205       .  T
C963        C964   1.205       .  T
C965        C966   1.205       .  T
C967        C968   1.205       .  T
C969        C970   1.205       .  T
C971        C972   1.205   1_554  T
C973        C974   1.204       .  T
C975       C1022   1.449       .  S
C977        C978   1.205       .  T
C979       C1406   1.204       .  T
C980       C1163   1.449   1_545  S
C980       C1405   1.205   1_545  T
C981        C982   1.204       .  T
C983        C984   1.205       .  T
C985        C986   1.205       .  T
C987        C988   1.205       .  T
C989        C990   1.205       .  T
C991        C992   1.205       .  T
C993        C994   1.205       .  T
Zn995       O999   1.964       .  S
Zn995      O1000   2.018       .  S
Zn995      O1004   2.017       .  S
Zn995      O1011   2.016       .  S
Zn996       O999   1.963       .  S
Zn996      O1001   2.016       .  S
Zn996      O1003   2.014       .  S
Zn996      O1007   2.014       .  S
Zn997       O999   1.963       .  S
Zn997      O1002   2.017       .  S
Zn997      O1005   2.015       .  S
Zn997      O1008   2.015       .  S
Zn998       O999   1.963       .  S
Zn998      O1006   2.018       .  S
Zn998      O1009   2.018       .  S
Zn998      O1010   2.017       .  S
O1000      C1012   1.272       .  A
O1001      C1013   1.272       .  A
O1002      C1014   1.272       .  A
O1003      C1012   1.272       .  A
O1004      C1014   1.272       .  A
O1005      C1013   1.272       .  A
O1006      C1015   1.272       .  A
O1007      C1016   1.271       .  A
O1008      C1015   1.272       .  A
O1009      C1016   1.272       .  A
O1010      C1017   1.272       .  A
O1011      C1017   1.272       .  A
C1012      C1130   1.434       .  S
C1013      C1131   1.434       .  S
C1014      C1127   1.434       .  S
C1015      C1135   1.434       .  S
C1016      C1133   1.434       .  S
C1017      C1125   1.434       .  S
C1018      C1116   1.449       .  S
C1018      C1023   1.409       .  A
C1019      C1124   1.449       .  S
C1019      C1020   1.409       .  A
C1020      C1120   1.450       .  S
C1020      C1021   1.409   1_545  A
C1021      C1264   1.449   1_565  S
C1022      C1023   1.409       .  A
C1023      C1113   1.450       .  S
C1024      C1112   1.439       .  S
C1024      C1451   1.402       .  A
C1024      C1029   1.401       .  A
C1025      C1450   1.402       .  A
C1025      H1030   1.085       .  S
C1026      C1132   1.438       .  S
C1026      C1167   1.402       .  A
C1026      C1027   1.400       .  A
C1027      C1170   1.399       .  A
C1027      H1031   1.085       .  S
C1028      C1115   1.437       .  S
C1028      C1455   1.400       .  A
C1029      C1454   1.400   1_545  A
C1029      H1032   1.085       .  S
C1033      C1110   1.439       .  S
C1033      C1176   1.402       .  A
C1033      C1038   1.401       .  A
C1034      C1035   1.402       .  A
C1034      H1039   1.085       .  S
C1035      C1136   1.439       .  S
C1035      C1036   1.401       .  A
C1036      C1037   1.400       .  A
C1036      H1040   1.085       .  S
C1037      C1114   1.438       .  S
C1038      C1179   1.400       .  A
C1038      H1041   1.085       .  S
C1042      C1129   1.439       .  S
C1042      C1043   1.401       .  A
C1043      C1044   1.400       .  A
C1043      H1048   1.085       .  S
C1044      C1118   1.437       .  S
C1045      C1046   1.400       .  A
C1045      H1049   1.085       .  S
C1046      C1107   1.438       .  S
C1047      C1188   1.402   1_455  A
C1047      H1050   1.085       .  S
C1051      C1105   1.439       .  S
C1051      C1052   1.401       .  A
C1052      H1057   1.085       .  S
C1053      C1123   1.437       .  S
C1053      C1196   1.400       .  A
C1054      C1055   1.401       .  A
C1054      H1058   1.085       .  S
C1055      C1126   1.439       .  S
C1056      C1197   1.402       .  A
C1056      H1059   1.085       .  S
C1060      C1134   1.439       .  S
C1060      C1061   1.401       .  A
C1060      C1491   1.402       .  A
C1061      C1062   1.400       .  A
C1061      H1066   1.085       .  S
C1062      C1121   1.437       .  S
C1062      C1347   1.400       .  A
C1063      C1630   1.400   1_545  A
C1063      C1064   1.401       .  A
C1063      H1067   1.085       .  S
C1064      C1103   1.439       .  S
C1064      C1207   1.402   1_545  A
C1065      C1486   1.402       .  A
C1065      H1068   1.085       .  S
C1069      C1102   1.439       .  S
C1069      C1074   1.401       .  A
C1070      C1211   1.402       .  A
C1070      C1071   1.402       .  A
C1070      H1075   1.085       .  S
C1071      C1128   1.439       .  S
C1071      C1072   1.401       .  A
C1072      C1073   1.400       .  A
C1072      H1076   1.085       .  S
C1073      C1119   1.438       .  S
C1073      C1216   1.400       .  A
C1074      H1077   1.085       .  S
Zn1078     O1082   1.963       .  S
Zn1078     O1083   2.014       .  S
Zn1078     O1087   2.014       .  S
Zn1078     O1094   2.017       .  S
Zn1079     O1082   1.964       .  S
Zn1079     O1084   2.016       .  S
Zn1079     O1086   2.018       .  S
Zn1079     O1090   2.017       .  S
Zn1080     O1082   1.963       .  S
Zn1080     O1085   2.018       .  S
Zn1080     O1088   2.017       .  S
Zn1080     O1091   2.018       .  S
Zn1081     O1082   1.962       .  S
Zn1081     O1089   2.015       .  S
Zn1081     O1092   2.016       .  S
Zn1081     O1093   2.015       .  S
O1083      C1095   1.272       .  A
O1084      C1096   1.272       .  A
O1085      C1097   1.272       .  A
O1086      C1095   1.272       .  A
O1087      C1097   1.271       .  A
O1088      C1096   1.272       .  A
O1089      C1098   1.272       .  A
O1090      C1099   1.272       .  A
O1091      C1098   1.272       .  A
O1092      C1099   1.272       .  A
O1093      C1100   1.272       .  A
O1094      C1100   1.272       .  A
C1095      C1111   1.434       .  S
C1096      C1104   1.434       .  S
C1097      C1106   1.434       .  S
C1098      C1109   1.434       .  S
C1099      C1101   1.434       .  S
C1100      C1108   1.434       .  S
C1101      C1102   1.205       .  T
C1103      C1104   1.205       .  T
C1105      C1106   1.205       .  T
C1107      C1108   1.205       .  T
C1109      C1110   1.205       .  T
C1111      C1112   1.205       .  T
C1113      C1114   1.205       .  T
C1115      C1116   1.204       .  T
C1117      C1164   1.449       .  S
C1119      C1120   1.205       .  T
C1121      C1548   1.204       .  T
C1122      C1547   1.205   1_545  T
C1123      C1124   1.204       .  T
C1125      C1126   1.205       .  T
C1127      C1128   1.205       .  T
C1129      C1130   1.205       .  T
C1131      C1132   1.205       .  T
C1133      C1134   1.205       .  T
C1135      C1136   1.205       .  T
Zn1137     O1141   1.964       .  S
Zn1137     O1142   2.018       .  S
Zn1137     O1146   2.017       .  S
Zn1137     O1153   2.016       .  S
Zn1138     O1141   1.963       .  S
Zn1138     O1143   2.016       .  S
Zn1138     O1145   2.014       .  S
Zn1138     O1149   2.014       .  S
Zn1139     O1141   1.963       .  S
Zn1139     O1144   2.017       .  S
Zn1139     O1147   2.015       .  S
Zn1139     O1150   2.015       .  S
Zn1140     O1141   1.963       .  S
Zn1140     O1148   2.018       .  S
Zn1140     O1151   2.018       .  S
Zn1140     O1152   2.017       .  S
O1142      C1154   1.272       .  A
O1143      C1155   1.272       .  A
O1144      C1156   1.272       .  A
O1145      C1154   1.272       .  A
O1146      C1156   1.272       .  A
O1147      C1155   1.272       .  A
O1148      C1157   1.272       .  A
O1149      C1158   1.271       .  A
O1150      C1157   1.272       .  A
O1151      C1158   1.272       .  A
O1152      C1159   1.272       .  A
O1153      C1159   1.272       .  A
C1154      C1272   1.434       .  S
C1155      C1273   1.434       .  S
C1156      C1269   1.434       .  S
C1157      C1277   1.434       .  S
C1158      C1275   1.434       .  S
C1159      C1267   1.434       .  S
C1160      C1258   1.449       .  S
C1160      C1165   1.409       .  A
C1161      C1266   1.449       .  S
C1161      C1162   1.409       .  A
C1162      C1262   1.450       .  S
C1162      C1163   1.409   1_546  A
C1164      C1165   1.409       .  A
C1165      C1255   1.450       .  S
C1166      C1254   1.439       .  S
C1166      C1593   1.402       .  A
C1166      C1171   1.401       .  A
C1167      C1592   1.402       .  A
C1167      H1172   1.085       .  S
C1168      C1274   1.438       .  S
C1168      C1169   1.400       .  A
C1169      H1173   1.085       .  S
C1170      C1257   1.437       .  S
C1170      C1597   1.400       .  A
C1171      C1596   1.400   1_545  A
C1171      H1174   1.085       .  S
C1175      C1252   1.439       .  S
C1175      C1180   1.401       .  A
C1176      C1177   1.402       .  A
C1176      H1181   1.085       .  S
C1177      C1278   1.439       .  S
C1177      C1178   1.401       .  A
C1178      C1179   1.400       .  A
C1178      H1182   1.085       .  S
C1179      C1256   1.438       .  S
C1180      H1183   1.085       .  S
C1184      C1271   1.439       .  S
C1184      C1185   1.401       .  A
C1185      C1186   1.400       .  A
C1185      H1190   1.085       .  S
C1186      C1260   1.437       .  S
C1187      C1188   1.400       .  A
C1187      H1191   1.085       .  S
C1188      C1249   1.438       .  S
C1189      H1192   1.085       .  S
C1193      C1247   1.439       .  S
C1193      C1194   1.401       .  A
C1194      H1199   1.085       .  S
C1195      C1265   1.437       .  S
C1196      C1197   1.401       .  A
C1196      H1200   1.085       .  S
C1197      C1268   1.439       .  S
C1198      H1201   1.085       .  S
C1202      C1276   1.439       .  S
C1202      C1203   1.401       .  A
C1202      C1633   1.402       .  A
C1203      C1204   1.400       .  A
C1203      H1208   1.085       .  S
C1204      C1263   1.437       .  S
C1204      C1489   1.400       .  A
C1205      C1346   1.400   1_546  A
C1205      C1206   1.401       .  A
C1205      H1209   1.085       .  S
C1206      C1245   1.439       .  S
C1207      C1628   1.402       .  A
C1207      H1210   1.085       .  S
C1211      C1244   1.439       .  S
C1211      C1216   1.401       .  A
C1212      C1213   1.402       .  A
C1212      H1217   1.085   1_556  S
C1213      C1270   1.439       .  S
C1213      C1214   1.401       .  A
C1214      C1215   1.400       .  A
C1214      H1218   1.085       .  S
C1215      C1261   1.438       .  S
C1216      H1219   1.085       .  S
Zn1220     O1224   1.963       .  S
Zn1220     O1225   2.014       .  S
Zn1220     O1229   2.014       .  S
Zn1220     O1236   2.017       .  S
Zn1221     O1224   1.964       .  S
Zn1221     O1226   2.016       .  S
Zn1221     O1228   2.018       .  S
Zn1221     O1232   2.017       .  S
Zn1222     O1224   1.963       .  S
Zn1222     O1227   2.018       .  S
Zn1222     O1230   2.017       .  S
Zn1222     O1233   2.018       .  S
Zn1223     O1224   1.962       .  S
Zn1223     O1231   2.015       .  S
Zn1223     O1234   2.016       .  S
Zn1223     O1235   2.015       .  S
O1225      C1237   1.272       .  A
O1226      C1238   1.272       .  A
O1227      C1239   1.272       .  A
O1228      C1237   1.272       .  A
O1229      C1239   1.271       .  A
O1230      C1238   1.272       .  A
O1231      C1240   1.272       .  A
O1232      C1241   1.272       .  A
O1233      C1240   1.272       .  A
O1234      C1241   1.272       .  A
O1235      C1242   1.272       .  A
O1236      C1242   1.272       .  A
C1237      C1253   1.434       .  S
C1238      C1246   1.434       .  S
C1239      C1248   1.434       .  S
C1240      C1251   1.434       .  S
C1241      C1243   1.434       .  S
C1242      C1250   1.434       .  S
C1243      C1244   1.205       .  T
C1245      C1246   1.205       .  T
C1247      C1248   1.205       .  T
C1249      C1250   1.205       .  T
C1251      C1252   1.205       .  T
C1253      C1254   1.205       .  T
C1255      C1256   1.205       .  T
C1257      C1258   1.204       .  T
C1261      C1262   1.205       .  T
C1263      C1690   1.204       .  T
C1264      C1689   1.205   1_545  T
C1265      C1266   1.204       .  T
C1267      C1268   1.205       .  T
C1269      C1270   1.205       .  T
C1271      C1272   1.205       .  T
C1273      C1274   1.205       .  T
C1275      C1276   1.205       .  T
C1277      C1278   1.205       .  T
Zn1279     O1283   1.964       .  S
Zn1279     O1284   2.018       .  S
Zn1279     O1288   2.017       .  S
Zn1279     O1295   2.016       .  S
Zn1280     O1283   1.963       .  S
Zn1280     O1285   2.017       .  S
Zn1280     O1287   2.014       .  S
Zn1280     O1291   2.014       .  S
Zn1281     O1283   1.962       .  S
Zn1281     O1286   2.017       .  S
Zn1281     O1289   2.015       .  S
Zn1281     O1292   2.016       .  S
Zn1282     O1283   1.963       .  S
Zn1282     O1290   2.018       .  S
Zn1282     O1293   2.018       .  S
Zn1282     O1294   2.017       .  S
O1284      C1296   1.272       .  A
O1285      C1297   1.272       .  A
O1286      C1298   1.272       .  A
O1287      C1296   1.272       .  A
O1288      C1298   1.272       .  A
O1289      C1297   1.272       .  A
O1290      C1299   1.272       .  A
O1291      C1300   1.271       .  A
O1292      C1299   1.272       .  A
O1293      C1300   1.272       .  A
O1294      C1301   1.272       .  A
O1295      C1301   1.272       .  A
C1296      C1414   1.434       .  S
C1297      C1415   1.434       .  S
C1298      C1411   1.434       .  S
C1299      C1419   1.434       .  S
C1300      C1417   1.434       .  S
C1301      C1409   1.434       .  S
C1302      C1400   1.449       .  S
C1302      C1307   1.409       .  A
C1303      C1408   1.449       .  S
C1303      C1304   1.409       .  A
C1304      C1404   1.450       .  S
C1304      C1305   1.409       .  A
C1305      C1548   1.449       .  S
C1306      C1685   1.449   1_455  S
C1306      C1307   1.409   1_456  A
C1307      C1397   1.450       .  S
C1308      C1396   1.438       .  S
C1308      C1313   1.401       .  A
C1309      C1594   1.402   1_544  A
C1309      H1314   1.085       .  S
C1310      C1416   1.438       .  S
C1310      C1451   1.402   1_565  A
C1310      C1311   1.401       .  A
C1311      C1454   1.400       .  A
C1311      H1315   1.085       .  S
C1312      C1399   1.437       .  S
C1312      C1595   1.400   1_554  A
C1313      H1316   1.085       .  S
C1317      C1394   1.439       .  S
C1317      C1460   1.402       .  A
C1317      C1322   1.401       .  A
C1318      C1601   1.402   1_554  A
C1318      C1319   1.402       .  A
C1318      H1323   1.085       .  S
C1319      C1420   1.439       .  S
C1319      C1320   1.401       .  A
C1320      C1321   1.400       .  A
C1320      H1324   1.085       .  S
C1321      C1398   1.438       .  S
C1321      C1606   1.400   1_554  A
C1322      C1463   1.400       .  A
C1322      H1325   1.085       .  S
C1326      C1413   1.438       .  S
C1326      C1327   1.401       .  A
C1327      C1328   1.400       .  A
C1327      H1332   1.085       .  S
C1328      C1402   1.437       .  S
C1329      C1330   1.400       .  A
C1329      H1333   1.085       .  S
C1330      C1391   1.438       .  S
C1330      C1615   1.402   1_654  A
C1331      C1472   1.402   1_455  A
C1331      H1334   1.085       .  S
C1335      C1389   1.439       .  S
C1335      C1336   1.401       .  A
C1336      H1341   1.085       .  S
C1337      C1407   1.437       .  S
C1337      C1480   1.400       .  A
C1338      C1621   1.400   1_554  A
C1338      C1339   1.401       .  A
C1338      H1342   1.085       .  S
C1339      C1410   1.439       .  S
C1339      C1624   1.402   1_554  A
C1340      C1481   1.402       .  A
C1340      H1343   1.085       .  S
C1344      C1418   1.439       .  S
C1344      C1345   1.401       .  A
C1345      C1346   1.400       .  A
C1345      H1350   1.085       .  S
C1346      C1405   1.437       .  S
C1347      C1348   1.401       .  A
C1347      H1351   1.085       .  S
C1348      C1387   1.439       .  S
C1348      C1491   1.402       .  A
C1349      C1632   1.402       .  A
C1349      H1352   1.085       .  S
C1353      C1386   1.439       .  S
C1353      C1638   1.402   1_554  A
C1353      C1358   1.401       .  A
C1354      C1495   1.402       .  A
C1354      C1355   1.402       .  A
C1354      H1359   1.085       .  S
C1355      C1412   1.439       .  S
C1355      C1356   1.401       .  A
C1356      C1357   1.400       .  A
C1356      H1360   1.085       .  S
C1357      C1403   1.438       .  S
C1357      C1500   1.400       .  A
C1358      C1641   1.400   1_554  A
C1358      H1361   1.085       .  S
Zn1362     O1366   1.963       .  S
Zn1362     O1367   2.014       .  S
Zn1362     O1371   2.014       .  S
Zn1362     O1378   2.016       .  S
Zn1363     O1366   1.964       .  S
Zn1363     O1368   2.016       .  S
Zn1363     O1370   2.018       .  S
Zn1363     O1374   2.017       .  S
Zn1364     O1366   1.963       .  S
Zn1364     O1369   2.018       .  S
Zn1364     O1372   2.017       .  S
Zn1364     O1375   2.018       .  S
Zn1365     O1366   1.962       .  S
Zn1365     O1373   2.015       .  S
Zn1365     O1376   2.017       .  S
Zn1365     O1377   2.015       .  S
O1367      C1379   1.272       .  A
O1368      C1380   1.272       .  A
O1369      C1381   1.272       .  A
O1370      C1379   1.272       .  A
O1371      C1381   1.271       .  A
O1372      C1380   1.272       .  A
O1373      C1382   1.272       .  A
O1374      C1383   1.272       .  A
O1375      C1382   1.272       .  A
O1376      C1383   1.272       .  A
O1377      C1384   1.272       .  A
O1378      C1384   1.272       .  A
C1379      C1395   1.434       .  S
C1380      C1388   1.434       .  S
C1381      C1390   1.434       .  S
C1382      C1393   1.434       .  S
C1383      C1385   1.434       .  S
C1384      C1392   1.434       .  S
C1385      C1386   1.205       .  T
C1387      C1388   1.205       .  T
C1389      C1390   1.205       .  T
C1391      C1392   1.205       .  T
C1393      C1394   1.206       .  T
C1395      C1396   1.205       .  T
C1397      C1398   1.205       .  T
C1399      C1400   1.204       .  T
C1401      C1448   1.449       .  S
C1403      C1404   1.205       .  T
C1406      C1589   1.449       .  S
C1407      C1408   1.204       .  T
C1409      C1410   1.205       .  T
C1411      C1412   1.205       .  T
C1413      C1414   1.205       .  T
C1415      C1416   1.205       .  T
C1417      C1418   1.205       .  T
C1419      C1420   1.206       .  T
Zn1421     O1425   1.964       .  S
Zn1421     O1426   2.018       .  S
Zn1421     O1430   2.017       .  S
Zn1421     O1437   2.016       .  S
Zn1422     O1425   1.963       .  S
Zn1422     O1427   2.017       .  S
Zn1422     O1429   2.014       .  S
Zn1422     O1433   2.014       .  S
Zn1423     O1425   1.962       .  S
Zn1423     O1428   2.017       .  S
Zn1423     O1431   2.015       .  S
Zn1423     O1434   2.016       .  S
Zn1424     O1425   1.963       .  S
Zn1424     O1432   2.018       .  S
Zn1424     O1435   2.018       .  S
Zn1424     O1436   2.017       .  S
O1426      C1438   1.272       .  A
O1427      C1439   1.272       .  A
O1428      C1440   1.272       .  A
O1429      C1438   1.272       .  A
O1430      C1440   1.272       .  A
O1431      C1439   1.272       .  A
O1432      C1441   1.272       .  A
O1433      C1442   1.271       .  A
O1434      C1441   1.272       .  A
O1435      C1442   1.272       .  A
O1436      C1443   1.272       .  A
O1437      C1443   1.272       .  A
C1438      C1556   1.434       .  S
C1439      C1557   1.434       .  S
C1440      C1553   1.434       .  S
C1441      C1561   1.434       .  S
C1442      C1559   1.434       .  S
C1443      C1551   1.434       .  S
C1444      C1542   1.449       .  S
C1444      C1449   1.409       .  A
C1445      C1550   1.449       .  S
C1445      C1446   1.409       .  A
C1446      C1546   1.450       .  S
C1446      C1447   1.409       .  A
C1447      C1690   1.449       .  S
C1448      C1449   1.409   1_455  A
C1449      C1539   1.450       .  S
C1450      C1538   1.438       .  S
C1450      C1455   1.401       .  A
C1451      H1456   1.085       .  S
C1452      C1558   1.438       .  S
C1452      C1593   1.402   1_565  A
C1452      C1453   1.401       .  A
C1453      C1596   1.400       .  A
C1453      H1457   1.085       .  S
C1454      C1541   1.437       .  S
C1455      H1458   1.085       .  S
C1459      C1536   1.439       .  S
C1459      C1602   1.402       .  A
C1459      C1464   1.401       .  A
C1460      C1461   1.402       .  A
C1460      H1465   1.085       .  S
C1461      C1562   1.439       .  S
C1461      C1462   1.401       .  A
C1462      C1463   1.400       .  A
C1462      H1466   1.085       .  S
C1463      C1540   1.438       .  S
C1464      C1605   1.400       .  A
C1464      H1467   1.085       .  S
C1468      C1555   1.438       .  S
C1468      C1469   1.401       .  A
C1469      C1470   1.400       .  A
C1469      H1474   1.085       .  S
C1470      C1544   1.437       .  S
C1471      C1472   1.400       .  A
C1471      H1475   1.085       .  S
C1472      C1533   1.438       .  S
C1473      C1614   1.402   1_455  A
C1473      H1476   1.085       .  S
C1477      C1531   1.439       .  S
C1477      C1478   1.401       .  A
C1478      H1483   1.085       .  S
C1479      C1549   1.437       .  S
C1479      C1622   1.400       .  A
C1480      C1481   1.401       .  A
C1480      H1484   1.085       .  S
C1481      C1552   1.439       .  S
C1482      C1623   1.402       .  A
C1482      H1485   1.085       .  S
C1486      C1560   1.439       .  S
C1486      C1487   1.401       .  A
C1487      C1488   1.400       .  A
C1487      H1492   1.085       .  S
C1488      C1547   1.437       .  S
C1489      C1490   1.401       .  A
C1489      H1493   1.085       .  S
C1490      C1529   1.439       .  S
C1490      C1633   1.402       .  A
C1491      H1494   1.085       .  S
C1495      C1528   1.439       .  S
C1495      C1500   1.401       .  A
C1496      C1637   1.402       .  A
C1496      C1497   1.402       .  A
C1496      H1501   1.085       .  S
C1497      C1554   1.439       .  S
C1497      C1498   1.401       .  A
C1498      C1499   1.400       .  A
C1498      H1502   1.085       .  S
C1499      C1545   1.438       .  S
C1499      C1642   1.400       .  A
C1500      H1503   1.085       .  S
Zn1504     O1508   1.963       .  S
Zn1504     O1509   2.014       .  S
Zn1504     O1513   2.014       .  S
Zn1504     O1520   2.016       .  S
Zn1505     O1508   1.964       .  S
Zn1505     O1510   2.016       .  S
Zn1505     O1512   2.018       .  S
Zn1505     O1516   2.017       .  S
Zn1506     O1508   1.963       .  S
Zn1506     O1511   2.018       .  S
Zn1506     O1514   2.017       .  S
Zn1506     O1517   2.018       .  S
Zn1507     O1508   1.962       .  S
Zn1507     O1515   2.015       .  S
Zn1507     O1518   2.017       .  S
Zn1507     O1519   2.015       .  S
O1509      C1521   1.272       .  A
O1510      C1522   1.272       .  A
O1511      C1523   1.272       .  A
O1512      C1521   1.272       .  A
O1513      C1523   1.271       .  A
O1514      C1522   1.272       .  A
O1515      C1524   1.272       .  A
O1516      C1525   1.272       .  A
O1517      C1524   1.272       .  A
O1518      C1525   1.272       .  A
O1519      C1526   1.272       .  A
O1520      C1526   1.272       .  A
C1521      C1537   1.434       .  S
C1522      C1530   1.434       .  S
C1523      C1532   1.434       .  S
C1524      C1535   1.434       .  S
C1525      C1527   1.434       .  S
C1526      C1534   1.434       .  S
C1527      C1528   1.205       .  T
C1529      C1530   1.205       .  T
C1531      C1532   1.205       .  T
C1533      C1534   1.205       .  T
C1535      C1536   1.206       .  T
C1537      C1538   1.205       .  T
C1539      C1540   1.205       .  T
C1541      C1542   1.204       .  T
C1543      C1590   1.449       .  S
C1545      C1546   1.205       .  T
C1549      C1550   1.204       .  T
C1551      C1552   1.205       .  T
C1553      C1554   1.205       .  T
C1555      C1556   1.205       .  T
C1557      C1558   1.205       .  T
C1559      C1560   1.205       .  T
C1561      C1562   1.206       .  T
Zn1563     O1567   1.964       .  S
Zn1563     O1568   2.018       .  S
Zn1563     O1572   2.017       .  S
Zn1563     O1579   2.016       .  S
Zn1564     O1567   1.963       .  S
Zn1564     O1569   2.017       .  S
Zn1564     O1571   2.014       .  S
Zn1564     O1575   2.014       .  S
Zn1565     O1567   1.962       .  S
Zn1565     O1570   2.017       .  S
Zn1565     O1573   2.015       .  S
Zn1565     O1576   2.016       .  S
Zn1566     O1567   1.963       .  S
Zn1566     O1574   2.018       .  S
Zn1566     O1577   2.018       .  S
Zn1566     O1578   2.017       .  S
O1568      C1580   1.272       .  A
O1569      C1581   1.272       .  A
O1570      C1582   1.272       .  A
O1571      C1580   1.272       .  A
O1572      C1582   1.272       .  A
O1573      C1581   1.272       .  A
O1574      C1583   1.272       .  A
O1575      C1584   1.271       .  A
O1576      C1583   1.272       .  A
O1577      C1584   1.272       .  A
O1578      C1585   1.272       .  A
O1579      C1585   1.272       .  A
C1580      C1698   1.434       .  S
C1581      C1699   1.434       .  S
C1582      C1695   1.434       .  S
C1583      C1703   1.434       .  S
C1584      C1701   1.434       .  S
C1585      C1693   1.434       .  S
C1586      C1684   1.449       .  S
C1586      C1591   1.409       .  A
C1587      C1692   1.449       .  S
C1587      C1588   1.409       .  A
C1588      C1688   1.450       .  S
C1588      C1589   1.409   1_556  A
C1590      C1591   1.409   1_455  A
C1591      C1681   1.450       .  S
C1592      C1680   1.438       .  S
C1592      C1597   1.401       .  A
C1593      H1598   1.085       .  S
C1594      C1700   1.438       .  S
C1594      C1595   1.401       .  A
C1595      H1599   1.085       .  S
C1596      C1683   1.437       .  S
C1597      H1600   1.085       .  S
C1601      C1678   1.439       .  S
C1601      C1606   1.401       .  A
C1602      C1603   1.402       .  A
C1602      H1607   1.085       .  S
C1603      C1704   1.439       .  S
C1603      C1604   1.401       .  A
C1604      C1605   1.400       .  A
C1604      H1608   1.085       .  S
C1605      C1682   1.438       .  S
C1606      H1609   1.085       .  S
C1610      C1697   1.438       .  S
C1610      C1611   1.401       .  A
C1611      C1612   1.400       .  A
C1611      H1616   1.085       .  S
C1612      C1686   1.437       .  S
C1613      C1614   1.400       .  A
C1613      H1617   1.085       .  S
C1614      C1675   1.438       .  S
C1615      H1618   1.085       .  S
C1619      C1673   1.439       .  S
C1619      C1620   1.401       .  A
C1620      H1625   1.085       .  S
C1621      C1691   1.437       .  S
C1622      C1623   1.401       .  A
C1622      H1626   1.085       .  S
C1623      C1694   1.439       .  S
C1624      H1627   1.085   1_556  S
C1628      C1702   1.439       .  S
C1628      C1629   1.401       .  A
C1629      C1630   1.400       .  A
C1629      H1634   1.085       .  S
C1630      C1689   1.437       .  S
C1631      C1632   1.401       .  A
C1631      H1635   1.085       .  S
C1632      C1671   1.439       .  S
C1633      H1636   1.085       .  S
C1637      C1670   1.439       .  S
C1637      C1642   1.401       .  A
C1638      C1639   1.402       .  A
C1638      H1643   1.085       .  S
C1639      C1696   1.439       .  S
C1639      C1640   1.401       .  A
C1640      C1641   1.400       .  A
C1640      H1644   1.085       .  S
C1641      C1687   1.438       .  S
C1642      H1645   1.085       .  S
Zn1646     O1650   1.963       .  S
Zn1646     O1651   2.014       .  S
Zn1646     O1655   2.014       .  S
Zn1646     O1662   2.016       .  S
Zn1647     O1650   1.964       .  S
Zn1647     O1652   2.016       .  S
Zn1647     O1654   2.018       .  S
Zn1647     O1658   2.017       .  S
Zn1648     O1650   1.963       .  S
Zn1648     O1653   2.018       .  S
Zn1648     O1656   2.017       .  S
Zn1648     O1659   2.018       .  S
Zn1649     O1650   1.962       .  S
Zn1649     O1657   2.015       .  S
Zn1649     O1660   2.017       .  S
Zn1649     O1661   2.015       .  S
O1651      C1663   1.272       .  A
O1652      C1664   1.272       .  A
O1653      C1665   1.272       .  A
O1654      C1663   1.272       .  A
O1655      C1665   1.271       .  A
O1656      C1664   1.272       .  A
O1657      C1666   1.272       .  A
O1658      C1667   1.272       .  A
O1659      C1666   1.272       .  A
O1660      C1667   1.272       .  A
O1661      C1668   1.272       .  A
O1662      C1668   1.272       .  A
C1663      C1679   1.434       .  S
C1664      C1672   1.434       .  S
C1665      C1674   1.434       .  S
C1666      C1677   1.434       .  S
C1667      C1669   1.434       .  S
C1668      C1676   1.434       .  S
C1669      C1670   1.205       .  T
C1671      C1672   1.205       .  T
C1673      C1674   1.205       .  T
C1675      C1676   1.205       .  T
C1677      C1678   1.206       .  T
C1679      C1680   1.205       .  T
C1681      C1682   1.205       .  T
C1683      C1684   1.204       .  T
C1687      C1688   1.205       .  T
C1691      C1692   1.204       .  T
C1693      C1694   1.205       .  T
C1695      C1696   1.205       .  T
C1697      C1698   1.205       .  T
C1699      C1700   1.205       .  T
C1701      C1702   1.205       .  T
C1703      C1704   1.206       .  T
