geometry optimzed in LAMMPS
_audit_creation_date              2020-11-30 
_audit_creation_method            'lammps2cif' 
_symmetry_space_group_name_H-M    'P1' 
_symmetry_Int_Tables_number       1 
_symmetry_cell_setting            triclinic 
loop_ 
_symmetry_equiv_pos_as_xyz 
  x,y,z 
_cell_length_a                    49.60832354 
_cell_length_b                    49.96284007999636 
_cell_length_c                    35.48660499507897 
_cell_angle_alpha                 97.54491940001581 
_cell_angle_beta                  80.12345293708397 
_cell_angle_gamma                 131.99796665510007 
loop_ 
_atom_site_label 
_atom_site_type_symbol 
_atom_site_fract_x 
_atom_site_fract_y 
_atom_site_fract_z 
_atom_site_charge 
C1          C  0.33149014  0.15801436  0.02983989     0.30500
C2          C  0.32780490  0.15273441  0.45135591     0.30500
C3          C  0.33954736  0.13546379  0.00595126    -0.05700
C4          C  0.29423257  0.14062613  0.01729656    -0.06500
C5          C  0.35745240  0.19370148  0.00744849    -0.06400
C6          C  0.33652892  0.13203357  0.46677548    -0.05700
C7          C  0.29255010  0.13860889  0.47809113    -0.06500
C8          C  0.35630463  0.19080315  0.46798713    -0.06400
C9          C  0.34469007  0.11105029  0.45156933    -0.31800
N10         N  0.35410015  0.10335222  0.47957819     0.14700
C11         C  0.35101445  0.11815067  0.01310841    -0.31800
H12         H  0.35816434  0.11817602  0.04024833     0.16700
C13         C  0.25653255  0.11991518  0.47390150    -0.30700
N14         N  0.23686209  0.11052145  0.00799652     0.13500
C15         C  0.25973698  0.12491366  0.03525455    -0.30700
C16         C  0.37046058  0.22318925  0.45528864    -0.31000
N17         N  0.38027456  0.24570817  0.98413476     0.14000
H18         H  0.37017317  0.22834499  0.42672278     0.16600
C19         C  0.37175007  0.22869766  0.01667954    -0.31000
H20         H  0.37245972  0.23993295  0.04507839     0.16600
H21         H  0.25168077  0.12360259  0.06575072     0.16600
H22         H  0.34472586  0.10264209  0.42191634     0.16700
H23         H  0.24440321  0.11068641  0.44738252     0.16600
C24         C  0.33442821  0.16102202  0.20083197     0.30500
C25         C  0.33252686  0.15785340  0.27974088     0.30500
C26         C  0.35539725  0.15156623  0.21296877    -0.05700
C27         C  0.34921627  0.19561143  0.22494691    -0.06500
C28         C  0.29655020  0.13352523  0.22347700    -0.06400
C29         C  0.35413168  0.14928018  0.25239614    -0.05700
C30         C  0.34898072  0.19427921  0.26439048    -0.06500
C31         C  0.29526196  0.13145356  0.26303776    -0.06400
C32         C  0.36917866  0.13437577  0.25531181    -0.31800
N33         N  0.38112558  0.12966600  0.21977179     0.14700
C34         C  0.37263042  0.13995911  0.19373126    -0.31800
H35         H  0.37802887  0.13869627  0.16300291     0.16700
C36         C  0.36061199  0.22677183  0.28055870    -0.30700
N37         N  0.36660354  0.24695513  0.25264656     0.13500
C38         C  0.35887143  0.22791399  0.21908173    -0.30700
C39         C  0.25867086  0.10914391  0.27751512    -0.31000
N40         N  0.23856912  0.09888779  0.24853719     0.14000
H41         H  0.24748851  0.10263480  0.30713127     0.16600
C42         C  0.26134949  0.11400917  0.21588868    -0.31000
H43         H  0.25298886  0.11338553  0.18931485     0.16600
H44         H  0.35912703  0.23667607  0.19263788     0.16600
H45         H  0.36958089  0.12534217  0.28108027     0.16700
H46         H  0.36289329  0.23449456  0.31057549     0.16600
O47         O  0.06541414  0.48294940  0.37237355    -0.74800
O48         O  0.04885578  0.46425471  0.43362563    -0.53700
C49         C  0.06538592  0.46861413  0.39996994     0.78900
O50         O  0.06581951  0.12362248  0.42067209    -0.59400
O51         O  0.02104648  0.10045398  0.38358762    -0.52400
C52         C  0.05094565  0.12697433  0.39747494     0.70900
O53         O  0.09413540  0.07375359  0.48328288    -0.74000
O54         O  0.06604864  0.01594213  0.49507837    -0.54500
C55         C  0.09307631  0.05030304  0.49660109     0.76900
O56         O  0.04274523  0.54222491  0.31491011    -0.59100
O57         O  0.50730993  0.05484554  0.32593851    -0.52200
C58         C  0.51749036  0.03798984  0.31132681     0.73500
Zr59       Zr  0.03888748  0.50820929  0.36109031     2.54700
O60         O  0.10841756  0.06163662  0.35302223    -0.79700
O61         O  0.54701566  0.48290548  0.30652791    -0.93100
Zr62       Zr  0.05690999  0.07624105  0.45015684     2.64700
O63         O  0.12130597  0.12349702  0.42778246    -0.98100
O64         O  0.06343505  0.11106457  0.50845525    -0.80100
O65         O  0.05858483  0.03045668  0.42516801    -0.83500
O66         O  0.04196765  0.05830511  0.38723189    -2.18200
O67         O  0.39900338  0.44168368  0.36760730    -0.66900
O68         O  0.42488419  0.49962281  0.36127596    -0.51400
C69         C  0.39850708  0.46532304  0.35808230     0.71900
O70         O  0.43442613  0.95244435  0.01479130    -0.59800
O71         O  0.97491851  0.44666012  0.02091361    -0.51700
C72         C  0.45637891  0.45692409  0.03407473     0.73700
O73         O  0.42218033  0.02769734  0.47798611    -0.71200
O74         O  0.44665061  0.05385304  0.42008238    -0.49800
C75         C  0.42627581  0.04621394  0.45184916     0.75100
O76         O  0.42785729  0.39341489  0.43189274    -0.66500
O77         O  0.47523143  0.41589007  0.46430183    -0.53700
C78         C  0.44417586  0.38954923  0.45235546     0.73500
Zr79       Zr  0.43759155  0.44128375  0.40151242     2.77500
O80         O  0.37447103  0.39179556  0.42622051    -0.97200
O81         O  0.43273045  0.40833516  0.34222537    -0.78100
Zr82       Zr  0.45243249  0.00628297  0.49044104     2.70100
O83         O  0.39624745  0.47683965  0.03526726    -0.79300
O84         O  0.97904165  0.05198507  0.04154526    -0.98400
Zr85       Zr  0.01035296  0.47683414  0.46106133     2.21500
Zr86       Zr  0.48101237  0.03697757  0.39011936     2.11100
O87         O  0.43509145  0.48653917  0.42871557    -2.47100
O88         O  0.45414889  0.46160606  0.46313810    -0.79100
O89         O  0.48567409  0.49405200  0.37335201    -0.71300
O90         O  0.01227366  0.02602544  0.48909365    -2.32300
O91         O  0.49709114  0.46112722  0.39890788    -2.28500
O92         O  0.99783430  0.05677227  0.45166740    -0.73100
H93         H  0.05981876  0.07967433  0.37222117     0.78900
H94         H  0.02070001  0.03481635  0.01510677     0.80000
H95         H  0.41115113  0.47862656  0.42942672     0.82300
H96         H  0.49681460  0.44184570  0.38993526     0.79900
H97         H  0.07234605  0.13403239  0.49956845     0.42900
H98         H  0.99247791  0.07475700  0.02830082     0.41900
H99         H  0.37703156  0.45414632  0.02207490     0.41500
H100        H  0.36405677  0.40312207  0.43557132     0.39500
H101        H  0.45776612  0.41774762  0.33393207     0.42600
H102        H  0.53121133  0.45751617  0.31399015     0.37400
H103        H  0.11404996  0.06537297  0.32508213     0.43500
H104        H  0.12194456  0.12818139  0.40124241     0.39900
H105        H  0.36216980  0.37743178  0.40328124     0.44800
H106        H  0.06017635  0.47997289  0.29973534     0.43600
H107        H  0.12895497  0.14536480  0.44269494     0.43700
H108        H  0.45551986  0.04718444  0.05711887     0.44100
O109        O  0.04135272  0.45787323  0.13197960    -0.74800
O110        O  0.02977551  0.44860436  0.19579922    -0.53700
C111        C  0.04278122  0.44704762  0.16192119     0.78900
O112        O  0.07207775  0.11444416  0.14015398    -0.59400
O113        O  0.02318654  0.09044423  0.10937360    -0.52400
C114        C  0.05507908  0.11752973  0.11982666     0.70900
O115        O  0.10370133  0.06766215  0.20390493    -0.74000
O116        O  0.06968790  0.01431568  0.23413050    -0.54500
C117        C  0.09994470  0.04604384  0.22509325     0.76900
O118        O  0.00677568  0.50156007  0.06689741    -0.59100
O119        O  0.45943924  0.99933029  0.07638472    -0.52200
C120        C  0.47436802  0.98722381  0.06043658     0.73500
Zr121      Zr  0.01010119  0.47624579  0.11540306     2.54700
O122        O  0.05001735  0.98058645  0.06112431    -0.79700
O123        O  0.46652107  0.41638651  0.08657496    -0.93100
Zr124      Zr  0.06598346  0.06814792  0.16822103     2.64700
O125        O  0.11303574  0.08496394  0.11558788    -0.98100
O126        O  0.10922276  0.12573424  0.20075421    -0.80100
O127        O  0.04646969  0.00946672  0.16312307    -0.83500
O128        O  0.02995923  0.03431668  0.11779038    -2.18200
O129        O  0.38347020  0.44001598  0.14758362    -0.66900
O130        O  0.41512135  0.49453444  0.12117673    -0.51400
C131        C  0.38602804  0.46145679  0.12762289     0.71900
O132        O  0.46486364  0.99366503  0.28217370    -0.59800
O133        O  0.99173067  0.47645002  0.28831453    -0.51700
C134        C  0.49024200  0.50082787  0.29788488     0.73700
O135        O  0.45510132  0.06292796  0.22533823    -0.71200
O136        O  0.45684425  0.06245309  0.16084774    -0.49800
C137        C  0.44994665  0.07005773  0.19512601     0.75100
O138        O  0.40737115  0.39448981  0.22214517    -0.66500
O139        O  0.45993894  0.41593032  0.24243035    -0.53700
C140        C  0.42570370  0.39050420  0.23846542     0.73500
Zr141      Zr  0.41929960  0.44113170  0.18757330     2.77500
O142        O  0.37148803  0.42696045  0.23779119    -0.97200
O143        O  0.37815578  0.38362812  0.15404151    -0.78100
Zr144      Zr  0.48065008  0.03821647  0.24171909     2.70100
O145        O  0.44661103  0.54027959  0.29857202    -0.79300
O146        O  0.02782161  0.09386142  0.26621769    -0.98400
Zr147      Zr  0.00613139  0.47750279  0.22069298     2.21500
Zr148      Zr  0.47835725  0.03131783  0.13614011     2.11100
O149        O  0.43961369  0.50036507  0.19343778    -2.47100
O150        O  0.45659338  0.47619923  0.23631768    -0.79100
O151        O  0.45761739  0.47161366  0.13211208    -0.71300
O152        O  0.02982742  0.03866774  0.22545862    -2.32300
O153        O  0.46963510  0.44340992  0.17173682    -2.28500
O154        O  0.01518955  0.06486117  0.18254933    -0.73100
H155        H  0.04569716  0.04928873  0.09584804     0.78900
H156        H  0.04649815  0.05281844  0.24448111     0.80000
H157        H  0.41842922  0.49811438  0.19766898     0.82300
H158        H  0.46175079  0.41965984  0.16924754     0.79900
H159        H  0.10161603  0.12043858  0.22836953     0.42900
H160        H  0.04325726  0.10938511  0.24379344     0.41900
H161        H  0.42061360  0.52193891  0.29400149     0.41500
H162        H  0.38143391  0.45044183  0.25029571     0.39500
H163        H  0.35465502  0.37004234  0.17073105     0.42600
H164        H  0.44195502  0.40747414  0.09683446     0.37400
H165        H  0.07454748  0.99936377  0.06978420     0.43500
H166        H  0.13518321  0.09679228  0.12802100     0.39900
H167        H  0.35174415  0.41994257  0.22403132     0.45800
H168        H  0.97459989  0.40292785  0.09501737     0.43600
H169        H  0.10590351  0.06186050  0.10518184     0.43700
H170        H  0.51781708  0.10456058  0.28484970     0.44100
C171        C  0.15879110  0.35647224  0.32538938     0.30500
C172        C  0.15979749  0.35968421  0.40449658     0.30500
C173        C  0.15028139  0.37835406  0.34979449    -0.05700
C174        C  0.13201665  0.31991279  0.34590670    -0.06500
C175        C  0.19532456  0.37273005  0.33906689    -0.06400
C176        C  0.15075639  0.37994485  0.38934391    -0.05700
C177        C  0.13271811  0.32196941  0.38603156    -0.06500
C178        C  0.19584583  0.37444603  0.37899225    -0.06400
C179        C  0.13929581  0.39791814  0.40538976    -0.31800
N180        N  0.13217100  0.40752493  0.37691605     0.14700
C181        C  0.13865997  0.39550899  0.34297034    -0.31800
H182        H  0.13431698  0.39820718  0.31534779     0.16700
C183        C  0.12231116  0.29032092  0.39589425    -0.30700
N184        N  0.11401042  0.26859853  0.36479772     0.13500
C185        C  0.12105895  0.28655453  0.33397105    -0.30700
C186        C  0.23049601  0.38959434  0.38462215    -0.31000
N187        N  0.25082361  0.39733303  0.35010146     0.14000
H188        H  0.24044436  0.39458330  0.41174912     0.16600
C189        C  0.22961498  0.38662423  0.32211503    -0.31000
H190        H  0.23872487  0.38923858  0.29180294     0.16600
H191        H  0.12190593  0.27752929  0.30471787     0.16600
H192        H  0.13462682  0.40192673  0.43569218     0.16700
H193        H  0.12387423  0.28457353  0.42338664     0.16600
C194        C  0.15457102  0.35411188  0.07605436     0.30500
C195        C  0.15447475  0.35316321  0.15474674     0.30500
C196        C  0.13175132  0.36087634  0.10309319    -0.05700
C197        C  0.14038515  0.31844611  0.09180958    -0.06500
C198        C  0.19211417  0.38180473  0.09171792    -0.06400
C199        C  0.13172446  0.36039559  0.14245362    -0.05700
C200        C  0.14068024  0.31828897  0.13144384    -0.06500
C201        C  0.19186937  0.38132134  0.13160843    -0.06400
C202        C  0.11601859  0.37387322  0.16069371    -0.31800
N203        N  0.10646556  0.38245712  0.13386846     0.14700
C204        C  0.11575313  0.37434081  0.09869953    -0.31800
H205        H  0.11251441  0.37914493  0.07166527     0.16700
C206        C  0.12936241  0.28552471  0.13910370    -0.30700
N207        N  0.12109543  0.26526238  0.10628159     0.13500
C208        C  0.12802185  0.28511697  0.07720096    -0.30700
C209        C  0.22610786  0.39547342  0.13710870    -0.31000
N210        N  0.24723662  0.40582789  0.10325717     0.14000
H211        H  0.23431163  0.39510730  0.16325986     0.16600
C212        C  0.22673425  0.39617658  0.07524572    -0.31000
H213        H  0.23545764  0.39641625  0.04508743     0.16600
H214        H  0.12519660  0.27625072  0.04753694     0.16600
H215        H  0.11413392  0.37948007  0.19109063     0.16700
H216        H  0.12745993  0.27694064  0.16659810     0.16600
C217        C  0.15435020  0.35399076  0.19938613    -0.05000
C218        C  0.18246483  0.38552260  0.21884261    -0.32400
C219        C  0.18400492  0.38664884  0.25868695     0.36800
C220        C  0.15712659  0.35578978  0.28128629    -0.05300
C221        C  0.12658985  0.32583161  0.26285096    -0.32300
C222        C  0.12478218  0.32493361  0.22300559     0.36700
H223        H  0.20319683  0.41027394  0.20345638     0.17100
O224        O  0.21086381  0.41887204  0.27577364    -0.59800
H225        H  0.10290312  0.30324101  0.27953075     0.17100
O226        O  0.09285349  0.29663117  0.20795965    -0.59900
H227        H  0.08637173  0.27434467  0.21548461     0.44100
H228        H  0.23438158  0.42674382  0.26250500     0.44100
C229        C  0.15444222  0.35649975  0.03218418    -0.05000
C230        C  0.18498514  0.38766127  0.51048150    -0.32400
C231        C  0.18638302  0.38982064  0.47043055     0.36800
C232        C  0.15808578  0.36015948  0.44950433    -0.05300
C233        C  0.12649543  0.33127816  0.47190931    -0.32300
C234        C  0.12536168  0.32883274  0.51169243     0.36700
H235        H  0.20496215  0.41213417  0.02553961     0.17100
O236        O  0.21426132  0.42196163  0.45255618    -0.59800
H237        H  0.10177644  0.31020307  0.45879660     0.17100
O238        O  0.09341557  0.30040472  0.53135408    -0.59900
H239        H  0.08761648  0.27834778  0.51890758     0.44100
H240        H  0.23731165  0.43014365  0.45965261     0.44100
C241        C  0.07359625  0.15541902  0.11018679    -0.05000
C242        C  0.10833245  0.18434165  0.12216561    -0.32400
C243        C  0.12474765  0.22031245  0.11912914     0.36800
C244        C  0.10688586  0.22869219  0.10389082    -0.05300
C245        C  0.07327355  0.20033537  0.08974203    -0.32300
C246        C  0.05662628  0.16400967  0.09272052     0.36700
H247        H  0.12269947  0.17924999  0.13518905     0.17100
O248        O  0.15807883  0.24727830  0.13213210    -0.59800
H249        H  0.05912178  0.20630672  0.07789712     0.17100
O250        O  0.02303865  0.13727931  0.08018247    -0.59900
H251        H  0.02794974  0.13686369  0.05192320     0.44100
H252        H  0.17625662  0.25247487  0.11023995     0.44100
C253        C  0.35231832  0.44707158  0.11278827    -0.05000
C254        C  0.34703100  0.47063481  0.10762224    -0.32400
C255        C  0.31289930  0.45710600  0.10064906     0.36800
C256        C  0.28373777  0.41977768  0.09865255    -0.05300
C257        C  0.28963114  0.39628571  0.10030775    -0.32300
C258        C  0.32362905  0.40959083  0.10742101     0.36700
H259        H  0.36863200  0.49945792  0.11139263     0.17100
O260        O  0.30725667  0.48032742  0.09941931    -0.59800
H261        H  0.26706014  0.36745361  0.09871777     0.17100
O262        O  0.32819043  0.38570458  0.11014962    -0.59900
H263        H  0.31439199  0.37363262  0.13490577     0.44100
H264        H  0.31524753  0.48836686  0.07258100     0.44100
C265        C  0.06050417  0.43174078  0.15655443    -0.05000
C266        C  0.08672517  0.44199092  0.12492867    -0.32400
C267        C  0.10245621  0.42652454  0.11753249     0.36800
C268        C  0.09166187  0.39978006  0.14163597    -0.05300
C269        C  0.06634806  0.39039066  0.17402076    -0.32300
C270        C  0.05106619  0.40633555  0.18180284     0.36700
H271        H  0.09533258  0.46233002  0.10584182     0.17100
O272        O  0.12970171  0.43908277  0.08783012    -0.59800
H273        H  0.05787797  0.37008818  0.19303026     0.17100
O274        O  0.02570589  0.39559547  0.21316542    -0.59900
H275        H  0.04009044  0.41108881  0.23468566     0.44100
H276        H  0.11754677  0.43057658  0.06420114     0.44100
C277        C  0.10250545  0.23363783  0.36580369    -0.05000
C278        C  0.11921003  0.22877809  0.38875505    -0.32400
C279        C  0.10319216  0.19446613  0.39885799     0.36800
C280        C  0.06986589  0.16380715  0.38538287    -0.05300
C281        C  0.05466425  0.16873878  0.35983831    -0.32300
C282        C  0.07082712  0.20336976  0.35002419     0.36700
H283        H  0.14401402  0.25197613  0.40055771     0.17100
O284        O  0.12019782  0.19153910  0.42255495    -0.59800
H285        H  0.02951534  0.14582366  0.34836094     0.17100
O286        O  0.05376749  0.20741333  0.32778805    -0.59900
H287        H  0.06252668  0.20575801  0.30102699     0.44100
H288        H  0.11212910  0.19505154  0.44884307     0.44100
C289        C  0.36339362  0.45149618  0.34692806    -0.05000
C290        C  0.33891550  0.41626738  0.33153846    -0.32400
C291        C  0.30220058  0.39888844  0.33032915     0.36800
C292        C  0.28927958  0.41649016  0.34493037    -0.05300
C293        C  0.31400421  0.45233102  0.35801767    -0.32300
C294        C  0.35086770  0.47007035  0.35858113     0.36700
H295        H  0.34778883  0.40143095  0.32229661     0.17100
O296        O  0.27864844  0.36395619  0.31701242    -0.59800
H297        H  0.30424627  0.46609112  0.36928707     0.17100
O298        O  0.37254975  0.00403261  0.37406957    -0.59900
H299        H  0.38219695  0.02028488  0.35266361     0.44100
H300        H  0.26895566  0.34897391  0.33970235     0.44100
C301        C  0.11686649  0.42432421  0.38190538    -0.05000
C302        C  0.09041596  0.41314922  0.35876550    -0.32400
C303        C  0.07452511  0.42843101  0.36354551     0.36800
C304        C  0.08449374  0.45491538  0.39223531    -0.05300
C305        C  0.11116805  0.46649008  0.41513162    -0.32300
C306        C  0.12760612  0.45165760  0.40993973     0.36700
H307        H  0.08140006  0.39187609  0.33742119     0.17100
O308        O  0.04769314  0.41579494  0.34155959    -0.59800
H309        H  0.11947456  0.48727773  0.43687348     0.17100
O310        O  0.15525788  0.46514220  0.43108952    -0.59900
H311        H  0.14340690  0.45700623  0.45755495     0.44100
H312        H  0.06083150  0.42843615  0.31697587     0.44100
C313        C  0.43404249  0.08722293  0.20037093    -0.05000
C314        C  0.41067306  0.07896534  0.17458543    -0.32400
C315        C  0.39333364  0.09290353  0.18024449     0.36800
C316        C  0.39959324  0.11597115  0.21195694    -0.05300
C317        C  0.42382295  0.12504232  0.23704142    -0.32300
C318        C  0.44069436  0.11072133  0.23171416     0.36700
H319        H  0.40484913  0.06066883  0.15056482     0.17100
O320        O  0.36853008  0.08187748  0.15611521    -0.59800
H321        H  0.42963409  0.14331798  0.26109420     0.17100
O322        O  0.46441626  0.12067388  0.25677512    -0.59900
H323        H  0.44873245  0.10591507  0.27970918     0.44100
H324        H  0.38321836  0.09388961  0.13157037     0.44100
C325        C  0.40686687  0.35338385  0.25040273    -0.05000
C326        C  0.42667173  0.34705878  0.26541953    -0.32400
C327        C  0.41239494  0.31187024  0.26915070     0.36800
C328        C  0.37822968  0.28228725  0.25701441    -0.05300
C329        C  0.35717638  0.28817774  0.24494214    -0.32300
C330        C  0.37078168  0.32319121  0.24225504     0.36700
H331        H  0.45409038  0.36941153  0.27258825     0.17100
O332        O  0.43334151  0.30677472  0.28154055    -0.59800
H333        H  0.33041979  0.26543185  0.23641277     0.17100
O334        O  0.34875461  0.32742351  0.23088443    -0.59900
H335        H  0.34719459  0.32057041  0.20329967     0.44100
H336        H  0.43022478  0.30878017  0.30984082     0.44100
C337        C  0.20150902  0.08372869  0.25225786    -0.05000
C338        C  0.19464569  0.10701809  0.25636458    -0.32400
C339        C  0.16090026  0.09464761  0.24953758     0.36800
C340        C  0.13326773  0.05831562  0.23884720    -0.05300
C341        C  0.13918284  0.03433324  0.23794976    -0.32300
C342        C  0.17322216  0.04695786  0.24431332     0.36700
H343        H  0.21640204  0.13538649  0.26249760     0.17100
O344        O  0.15523265  0.11828261  0.25306600    -0.59800
H345        H  0.11821915  0.00626269  0.22990721     0.17100
O346        O  0.17949541  0.02379277  0.23989297    -0.59900
H347        H  0.17605838  0.01650734  0.26618243     0.44100
H348        H  0.16910034  0.13338383  0.23005440     0.44100
C349        C  0.37101559  0.08796866  0.47296547    -0.05000
C350        C  0.39488087  0.09641728  0.43953521    -0.32400
C351        C  0.41268273  0.08305970  0.43227654     0.36800
C352        C  0.40677060  0.06014196  0.45865478    -0.05300
C353        C  0.38259338  0.05146403  0.49217221    -0.32300
C354        C  0.36484922  0.06512076  0.49939205     0.36700
H355        H  0.40053953  0.11432801  0.41905667     0.17100
O356        O  0.43581549  0.09277843  0.39905563    -0.59800
H357        H  0.37734835  0.03401483  0.51299408     0.17100
O358        O  0.34137738  0.05572523  0.53220873    -0.59900
H359        H  0.31722620  0.03318426  0.52544754     0.44100
H360        H  0.45923541  0.11690165  0.40464087     0.44100
C361        C  0.39409754  0.28232125  0.48228400    -0.05000
C362        C  0.37457967  0.28540004  0.96052646    -0.32400
C363        C  0.38936044  0.31962929  0.95141624     0.36800
C364        C  0.42602785  0.35240492  0.46334681    -0.05300
C365        C  0.44327468  0.34734550  0.48568633    -0.32300
C366        C  0.42754933  0.31269905  0.49511244     0.36700
H367        H  0.34865175  0.26189680  0.95091022     0.17100
O368        O  0.36999317  0.32218853  0.93117638    -0.59800
H369        H  0.46948722  0.37023016  0.49524494     0.17100
O370        O  0.44581689  0.30873863  0.51542357    -0.59900
H371        H  0.45943605  0.30432100  0.49590807     0.44100
H372        H  0.35190999  0.32045781  0.95051994     0.44100
C373        C  0.19964456  0.09601819  0.51574578    -0.05000
C374        C  0.19007319  0.11507276  0.02232633    -0.32400
C375        C  0.15460221  0.10065169  0.02005033     0.36800
C376        C  0.12710602  0.06441157  0.51115456    -0.05300
C377        C  0.13646646  0.04301928  0.50736185    -0.32300
C378        C  0.17257340  0.05872597  0.50909056     0.36700
H379        H  0.21124341  0.14366426  0.02799999     0.17100
O380        O  0.14782886  0.12347880  0.02515947    -0.59800
H381        H  0.11658681  0.01464714  0.49988628     0.17100
O382        O  0.18162004  0.03778031  0.50247879    -0.59900
H383        H  0.18755349  0.03760783  0.47434730     0.44100
H384        H  0.13161031  0.11643890  0.04954484     0.44100
C385        C  0.32839028  0.15289048  0.40673732    -0.05000
C386        C  0.30600989  0.15591476  0.39134909    -0.32400
C387        C  0.30759392  0.15845267  0.35133715     0.36800
C388        C  0.33171733  0.15751577  0.32443842    -0.05300
C389        C  0.35789106  0.16050559  0.34040392    -0.32300
C390        C  0.35666658  0.15848336  0.38033633     0.36700
H391        H  0.28854836  0.15869856  0.41044508     0.17100
O392        O  0.28800328  0.16539790  0.33907461    -0.59800
H393        H  0.38140521  0.16718672  0.32240841     0.17100
O394        O  0.38551244  0.16579649  0.39356014    -0.59900
H395        H  0.38875960  0.14963084  0.37887058     0.44100
H396        H  0.26283602  0.14829960  0.35224453     0.44100
C397        C  0.33518452  0.16106732  0.15619412    -0.05000
C398        C  0.30957581  0.12872846  0.13592569    -0.32400
C399        C  0.30832785  0.12756242  0.09602131     0.36800
C400        C  0.33337812  0.15913804  0.07398219    -0.05300
C401        C  0.36202845  0.19034142  0.09320745    -0.32300
C402        C  0.36347107  0.19139700  0.13320769     0.36700
H403        H  0.29048477  0.10356598  0.15090020     0.17100
O404        O  0.28376594  0.09476472  0.07830843    -0.59800
H405        H  0.38489322  0.21380253  0.07707234     0.17100
O406        O  0.39442608  0.22102570  0.14873876    -0.59900
H407        H  0.39945925  0.24239835  0.14063476     0.44100
H408        H  0.25923670  0.08512628  0.09018131     0.44100
C409        C  0.33180918  0.15867786  0.53001887     0.30500
C410        C  0.32749934  0.15167981  0.95097908     0.30500
C411        C  0.33916172  0.13555855  0.50608059    -0.05700
C412        C  0.29479161  0.14217958  0.51772405    -0.06500
C413        C  0.35830117  0.19450051  0.50783275    -0.06400
C414        C  0.33687645  0.13172777  0.96660818    -0.05700
C415        C  0.29211206  0.13690674  0.97757608    -0.06500
C416        C  0.35545800  0.18977528  0.96759930    -0.06400
C417        C  0.34499323  0.11077928  0.95159656    -0.31800
N418        N  0.35451125  0.10332283  0.97972799     0.14700
C419        C  0.35049534  0.11800170  0.51306813    -0.31800
H420        H  0.35765102  0.11782641  0.54011799     0.16700
C421        C  0.25603132  0.11719182  0.97299875    -0.30700
N422        N  0.23763234  0.11362805  0.50907021     0.13500
C423        C  0.26061321  0.12736391  0.53602485    -0.30700
C424        C  0.36989264  0.22204922  0.95443747    -0.31000
N425        N  0.38082261  0.24670754  0.48516232     0.14000
H426        H  0.36972174  0.22705254  0.92573342     0.16600
C427        C  0.37240054  0.22942318  0.51744559    -0.31000
H428        H  0.37307626  0.24038090  0.54600839     0.16600
H429        H  0.25277987  0.12601818  0.56657057     0.16600
H430        H  0.34467278  0.10207447  0.92201040     0.16700
H431        H  0.24410633  0.10780876  0.94633385     0.16600
C432        C  0.33437532  0.16047188  0.70061229     0.30500
C433        C  0.33257308  0.15702816  0.77938720     0.30500
C434        C  0.35536974  0.15091017  0.71248628    -0.05700
C435        C  0.34927335  0.19500976  0.72486208    -0.06500
C436        C  0.29650841  0.13294724  0.72329075    -0.06400
C437        C  0.35422990  0.14860164  0.75189054    -0.05700
C438        C  0.34897846  0.19351759  0.76426392    -0.06500
C439        C  0.29533000  0.13061947  0.76273806    -0.06400
C440        C  0.36918526  0.13358807  0.75467728    -0.31800
N441        N  0.38075996  0.12858445  0.71906252     0.14700
C442        C  0.37224367  0.13894419  0.69311307    -0.31800
H443        H  0.37731655  0.13740181  0.66236602     0.16700
C444        C  0.36143634  0.22630438  0.78044613    -0.30700
N445        N  0.36821454  0.24690971  0.75249600     0.13500
C446        C  0.36010416  0.22783453  0.71893204    -0.30700
C447        C  0.25880465  0.10816343  0.77739044    -0.31000
N448        N  0.23861898  0.09833452  0.74870367     0.14000
H449        H  0.24772733  0.10133722  0.80698336     0.16600
C450        C  0.26127743  0.11381229  0.71607133    -0.31000
H451        H  0.25279831  0.11365382  0.68983977     0.16600
H452        H  0.36099098  0.23699872  0.69241710     0.16600
H453        H  0.36974113  0.12467079  0.78043969     0.16700
H454        H  0.36390007  0.23402474  0.81045327     0.16600
O455        O  0.06781699  0.48624284  0.87503784    -0.74800
O456        O  0.04908895  0.46527236  0.93551714    -0.53700
C457        C  0.06653710  0.47064209  0.90219049     0.78900
O458        O  0.06502647  0.12415328  0.92310623    -0.59400
O459        O  0.02073371  0.10105021  0.88534876    -0.52400
C460        C  0.05027583  0.12754055  0.89978089     0.70900
O461        O  0.09416900  0.07389555  0.98356047    -0.74000
O462        O  0.06570805  0.01600546  0.99559953    -0.54500
C463        C  0.09305715  0.05028474  0.99649667     0.76900
O464        O  0.04586969  0.54707707  0.81874714    -0.59100
O465        O  0.50621310  0.05374369  0.82589272    -0.52200
C466        C  0.51566937  0.03627114  0.81128641     0.73500
Zr467      Zr  0.04291787  0.51308118  0.86441986     2.54700
O468        O  0.10868122  0.06145139  0.85487846    -0.79700
O469        O  0.54224795  0.47861606  0.80699800    -0.93100
Zr470      Zr  0.05653395  0.07677186  0.95193978     2.64700
O471        O  0.12092464  0.12464063  0.92999284    -0.98100
O472        O  0.06491145  0.11319381  0.00943758    -0.80100
O473        O  0.05812368  0.03092873  0.92678161    -0.83500
O474        O  0.04192312  0.05916374  0.88888962    -2.18200
O475        O  0.39602118  0.43909390  0.86825468    -0.66900
O476        O  0.42252969  0.49703354  0.86032645    -0.51400
C477        C  0.39578439  0.46269129  0.85804268     0.71900
O478        O  0.43575320  0.95260324  0.51322379    -0.59800
O479        O  0.97290126  0.44409947  0.51801783    -0.51700
C480        C  0.45851565  0.45779007  0.53313372     0.73700
O481        O  0.41983443  0.02542731  0.97817443    -0.71200
O482        O  0.44498222  0.05198699  0.92048845    -0.49800
C483        C  0.42419303  0.04400448  0.95200777     0.75100
O484        O  0.42522449  0.39106643  0.93077789    -0.66500
O485        O  0.47256993  0.41403140  0.96360293    -0.53700
C486        C  0.44169170  0.38754049  0.95134639     0.73500
Zr487      Zr  0.43513901  0.43930032  0.90171372     2.77500
O488        O  0.37305225  0.39090869  0.93012750    -0.97200
O489        O  0.43014953  0.40719170  0.84164186    -0.78100
Zr490      Zr  0.45124478  0.00566670  0.99085156     2.70100
O491        O  0.39995184  0.48044119  0.53719527    -0.79300
O492        O  0.97738201  0.05067884  0.54133424    -0.98400
Zr493      Zr  0.01109357  0.47848973  0.96324264     2.21500
Zr494      Zr  0.48007844  0.03602065  0.89014218     2.11100
O495        O  0.43285578  0.48469500  0.92835646    -2.47100
O496        O  0.45215565  0.45995483  0.96321310    -0.79100
O497        O  0.48327145  0.49196993  0.87363774    -0.71300
O498        O  0.01180405  0.02619231  0.99049713    -2.32300
O499        O  0.49451372  0.45888414  0.89946534    -2.28500
O500        O  0.99749994  0.05738569  0.95331317    -0.73100
H501        H  0.05983606  0.08066631  0.87408523     0.78900
H502        H  0.02116660  0.03474624  0.51371576     0.80000
H503        H  0.40889560  0.47672080  0.92902800     0.82300
H504        H  0.49409564  0.43950227  0.89055660     0.79900
H505        H  0.06175949  0.09995322  0.03063920     0.42900
H506        H  0.99218572  0.07390515  0.52844977     0.41900
H507        H  0.37966954  0.45873854  0.52386861     0.41500
H508        H  0.36612045  0.40332242  0.94705308     0.39500
H509        H  0.40403136  0.39087820  0.83775647     0.42600
H510        H  0.52603780  0.45332208  0.81501084     0.37400
H511        H  0.11393576  0.07008258  0.82882927     0.43500
H512        H  0.12161692  0.12952063  0.90352922     0.39900
H513        H  0.35763068  0.38037603  0.90897059     0.44800
H514        H  0.07364951  0.49438657  0.80286913     0.43600
H515        H  0.12825319  0.14630353  0.94514509     0.43700
H516        H  0.45661806  0.04566830  0.55887390     0.44100
O517        O  0.03720278  0.45278826  0.63087727    -0.74800
O518        O  0.03000967  0.44770720  0.69520102    -0.53700
C519        C  0.03994447  0.44321262  0.66085455     0.78900
O520        O  0.07351183  0.11538009  0.64161846    -0.59400
O521        O  0.02471562  0.09116747  0.61040930    -0.52400
C522        C  0.05650842  0.11825400  0.62099936     0.70900
O523        O  0.10322703  0.06599190  0.70496056    -0.74000
O524        O  0.06928006  0.01293097  0.73573547    -0.54500
C525        C  0.09954403  0.04447963  0.72625224     0.76900
O526        O  0.00663706  0.49856136  0.56410900    -0.59100
O527        O  0.46140451  0.99886698  0.57485517    -0.52200
C528        C  0.47605783  0.98649918  0.55870891     0.73500
Zr529      Zr  0.01115918  0.47666513  0.61520751     2.54700
O530        O  0.05586957  0.98706488  0.56364403    -0.79700
O531        O  0.47151087  0.41841073  0.58480486    -0.93100
Zr532      Zr  0.06673996  0.06869964  0.66997663     2.64700
O533        O  0.11449046  0.08591600  0.61813817    -0.98100
O534        O  0.11038376  0.12602000  0.70268386    -0.80100
O535        O  0.04734076  0.01014004  0.66502811    -0.83500
O536        O  0.03144248  0.03559382  0.61899843    -2.18200
O537        O  0.38351486  0.43897540  0.64701739    -0.66900
O538        O  0.41541698  0.49376979  0.62103015    -0.51400
C539        C  0.38621076  0.46084712  0.62762098     0.71900
O540        O  0.46257197  0.99254537  0.78241820    -0.59800
O541        O  0.99885795  0.48160948  0.78800097    -0.51700
C542        C  0.48713826  0.49851259  0.79836836     0.73700
O543        O  0.45386112  0.06120019  0.72363009    -0.71200
O544        O  0.45687831  0.06179141  0.65904881    -0.49800
C545        C  0.44935511  0.06883750  0.69333401     0.75100
O546        O  0.40971185  0.39420308  0.72069448    -0.66500
O547        O  0.46204864  0.41633684  0.74224204    -0.53700
C548        C  0.42802397  0.39062209  0.73769276     0.73500
Zr549      Zr  0.42019008  0.43961757  0.68528773     2.77500
O550        O  0.36960306  0.42137295  0.73364142    -0.97200
O551        O  0.38425832  0.38373699  0.64773243    -0.78100
Zr552      Zr  0.47955648  0.03700918  0.74079624     2.70100
O553        O  0.43882100  0.53378223  0.79532617    -0.79300
O554        O  0.02852619  0.09385202  0.76706708    -0.98400
Zr555      Zr  0.00840130  0.47867718  0.72030194     2.21500
Zr556      Zr  0.47874904  0.03092187  0.63477276     2.11100
O557        O  0.43877894  0.49816575  0.69194319    -2.47100
O558        O  0.45629622  0.47483183  0.73479224    -0.79100
O559        O  0.45929275  0.47140539  0.63078039    -0.71300
O560        O  0.02995313  0.03859636  0.72677110    -2.32300
O561        O  0.47184869  0.44387184  0.67086434    -2.28500
O562        O  0.01590651  0.06540643  0.68372606    -0.73100
H563        H  0.04734299  0.05068259  0.59718496     0.78900
H564        H  0.04650009  0.05253546  0.74592925     0.80000
H565        H  0.41732415  0.49546268  0.69591763     0.82300
H566        H  0.46467112  0.42042425  0.66828701     0.79900
H567        H  0.10389640  0.12030607  0.73018753     0.42900
H568        H  0.04580574  0.10843828  0.74469268     0.41900
H569        H  0.41344849  0.51356955  0.78946234     0.41500
H570        H  0.36004120  0.39855091  0.74377641     0.39500
H571        H  0.35934732  0.36889382  0.66160098     0.42600
H572        H  0.44654171  0.40901897  0.59359278     0.37400
H573        H  0.07904864  0.00241523  0.57527397     0.43500
H574        H  0.13739892  0.10249030  0.63034448     0.39900
H575        H  0.38133220  0.43916163  0.75490901     0.45800
H576        H  0.97630511  0.40379848  0.59291175     0.43600
H577        H  0.11088220  0.06387591  0.61181525     0.43700
H578        H  0.51695545  0.10343192  0.78393421     0.44100
C579        C  0.15715699  0.35627642  0.82591325     0.30500
C580        C  0.15757669  0.35948079  0.90518699     0.30500
C581        C  0.14905974  0.37859667  0.85002058    -0.05700
C582        C  0.12993764  0.31966831  0.84649773    -0.06500
C583        C  0.19329422  0.37207169  0.83995295    -0.06400
C584        C  0.14932400  0.38020724  0.88963345    -0.05700
C585        C  0.13017621  0.32178905  0.88678461    -0.06500
C586        C  0.19357150  0.37376412  0.87993194    -0.06400
C587        C  0.13918577  0.39934098  0.90535520    -0.31800
N588        N  0.13295324  0.40954108  0.87664606     0.14700
C589        C  0.13878330  0.39688606  0.84283947    -0.31800
H590        H  0.13486877  0.39994249  0.81514239     0.16700
C591        C  0.11978552  0.29026139  0.89698210    -0.30700
N592        N  0.11234919  0.26861789  0.86601456     0.13500
C593        C  0.11964318  0.28646297  0.83492323    -0.30700
C594        C  0.22810354  0.38877746  0.88579455    -0.31000
N595        N  0.24844303  0.39629446  0.85131462     0.14000
H596        H  0.23795618  0.39387756  0.91302581     0.16600
C597        C  0.22748349  0.38577676  0.82318041    -0.31000
H598        H  0.23670897  0.38841362  0.79289185     0.16600
H599        H  0.12131868  0.27763470  0.80578874     0.16600
H600        H  0.13481131  0.40383481  0.93558821     0.16700
H601        H  0.12108129  0.28470203  0.92472482     0.16600
C602        C  0.15547964  0.35377709  0.57563672     0.30500
C603        C  0.15479142  0.35328108  0.65462261     0.30500
C604        C  0.13168287  0.35959587  0.60210234    -0.05700
C605        C  0.14194354  0.31854619  0.59168183    -0.06500
C606        C  0.19273440  0.38211299  0.59181476    -0.06400
C607        C  0.13144062  0.35948190  0.64156592    -0.05700
C608        C  0.14205567  0.31859067  0.63144447    -0.06500
C609        C  0.19215385  0.38197795  0.63185203    -0.06400
C610        C  0.11361407  0.37093762  0.65917996    -0.31800
N611        N  0.10283008  0.37776606  0.63185868     0.14700
C612        C  0.11334556  0.37037140  0.59699811    -0.31800
H613        H  0.10919754  0.37370600  0.56965980     0.16700
C614        C  0.13110693  0.28599436  0.63930822    -0.30700
N615        N  0.12308459  0.26573162  0.60652767     0.13500
C616        C  0.12980680  0.28529746  0.57728958    -0.30700
C617        C  0.22657985  0.39720225  0.63810361    -0.31000
N618        N  0.24804356  0.40761603  0.60450613     0.14000
H619        H  0.23469918  0.39726131  0.66455757     0.16600
C620        C  0.22765113  0.39694681  0.57600796    -0.31000
H621        H  0.23672309  0.39679381  0.54605966     0.16600
H622        H  0.12662398  0.27613355  0.54772537     0.16600
H623        H  0.11098534  0.37633254  0.68952098     0.16700
H624        H  0.12903580  0.27741672  0.66688864     0.16600
C625        C  0.15428438  0.35425081  0.69941613    -0.05000
C626        C  0.18182282  0.38593514  0.71927081    -0.32400
C627        C  0.18298094  0.38693818  0.75924680     0.36800
C628        C  0.15613499  0.35584879  0.78162598    -0.05300
C629        C  0.12623835  0.32566510  0.76267507    -0.32300
C630        C  0.12486233  0.32486115  0.72273171     0.36700
H631        H  0.20237129  0.41084940  0.70410760     0.17100
O632        O  0.20943440  0.41919328  0.77662509    -0.59800
H633        H  0.10260875  0.30275278  0.77901792     0.17100
O634        O  0.09335746  0.29622755  0.70725310    -0.59900
H635        H  0.08721848  0.27416322  0.71495632     0.44100
H636        H  0.23315241  0.42721956  0.76386765     0.44100
C637        C  0.15582854  0.35615631  0.53158087    -0.05000
C638        C  0.18322274  0.38807758  0.01101505    -0.32400
C639        C  0.18411945  0.39011748  0.97103445     0.36800
C640        C  0.15585683  0.36020858  0.95027565    -0.05300
C641        C  0.12451685  0.33131075  0.97289863    -0.32300
C642        C  0.12379626  0.32901715  0.01261162     0.36700
H643        H  0.20660272  0.41170496  0.52509773     0.17100
O644        O  0.21147681  0.42230197  0.95302773    -0.59800
H645        H  0.09966987  0.31012281  0.96004701     0.17100
O646        O  0.09210909  0.30052481  0.03252226    -0.59900
H647        H  0.08610425  0.27848173  0.01972460     0.44100
H648        H  0.23481198  0.43073465  0.95951708     0.44100
C649        C  0.07470177  0.15582675  0.61091319    -0.05000
C650        C  0.11153926  0.18459525  0.61714714    -0.32400
C651        C  0.12806233  0.22063330  0.61399622     0.36800
C652        C  0.10812515  0.22896172  0.60433512    -0.05300
C653        C  0.07207607  0.20059440  0.59606239    -0.32300
C654        C  0.05533423  0.16433872  0.59918451     0.36700
H655        H  0.12749486  0.17929128  0.62570812     0.17100
O656        O  0.16352796  0.24769701  0.62155885    -0.59800
H657        H  0.05632916  0.20664997  0.58883086     0.17100
O658        O  0.01934916  0.13770309  0.59318056    -0.59900
H659        H  0.01944982  0.13475203  0.56498628     0.44100
H660        H  0.17844374  0.25308255  0.59646217     0.44100
C661        C  0.35263654  0.44746906  0.61371617    -0.05000
C662        C  0.34737022  0.47153960  0.61146945    -0.32400
C663        C  0.31341147  0.45870714  0.60511242     0.36800
C664        C  0.28448165  0.42157384  0.60055389    -0.05300
C665        C  0.29035272  0.39775746  0.59958806    -0.32300
C666        C  0.32421089  0.41042314  0.60618468     0.36700
H667        H  0.36886809  0.50006978  0.61695563     0.17100
O668        O  0.30777378  0.48222143  0.60661601    -0.59800
H669        H  0.26791710  0.36907983  0.59610516     0.17100
O670        O  0.32903971  0.38637188  0.60591591    -0.59900
H671        H  0.31680406  0.37422918  0.63086233     0.44100
H672        H  0.31219498  0.48877848  0.57967705     0.44100
C673        C  0.05610364  0.42636216  0.65462201    -0.05000
C674        C  0.08065545  0.43505900  0.62174707    -0.32400
C675        C  0.09598480  0.41926582  0.61385310     0.36800
C676        C  0.08667892  0.39382245  0.63892156    -0.05300
C677        C  0.06229555  0.38529205  0.67207302    -0.32300
C678        C  0.04721990  0.40146679  0.68015559     0.36700
H679        H  0.08857069  0.45474690  0.60214264     0.17100
O680        O  0.12173496  0.43063033  0.58277767    -0.59800
H681        H  0.05467402  0.36576097  0.69165714     0.17100
O682        O  0.02276050  0.39161571  0.71220024    -0.59900
H683        H  0.03779884  0.40818721  0.73290987     0.44100
H684        H  0.10811233  0.42071689  0.56008461     0.44100
C685        C  0.10157865  0.23399489  0.86762153    -0.05000
C686        C  0.11681152  0.22938664  0.89316320    -0.32400
C687        C  0.10054283  0.19520207  0.90398465     0.36800
C688        C  0.06897668  0.16435706  0.88800314    -0.05300
C689        C  0.05545453  0.16903766  0.85999325    -0.32300
C690        C  0.07154801  0.20355118  0.84981621     0.36700
H691        H  0.14043647  0.25264117  0.90655491     0.17100
O692        O  0.11530010  0.19259657  0.93111002    -0.59800
H693        H  0.03165045  0.14595792  0.84667645     0.17100
O694        O  0.05590201  0.20718556  0.82495687    -0.59900
H695        H  0.06532836  0.20453111  0.79907434     0.44100
H696        H  0.10272996  0.19273524  0.95600216     0.44100
C697        C  0.36053815  0.44885791  0.84733187    -0.05000
C698        C  0.33531326  0.41315153  0.83331228    -0.32400
C699        C  0.29869584  0.39621996  0.83247733     0.36800
C700        C  0.28665063  0.41473930  0.84611568    -0.05300
C701        C  0.31196813  0.45085750  0.85799551    -0.32300
C702        C  0.34872855  0.46813707  0.85827853     0.36700
H703        H  0.34356342  0.39769509  0.82482904     0.17100
O704        O  0.27442186  0.36095717  0.82031416    -0.59800
H705        H  0.30277178  0.46522903  0.86858788     0.17100
O706        O  0.37242601  0.00349172  0.87451507    -0.59900
H707        H  0.37961482  0.01983354  0.85433207     0.44100
H708        H  0.26366571  0.34663427  0.84378651     0.44100
C709        C  0.11822937  0.42681048  0.88161225    -0.05000
C710        C  0.09046616  0.41463161  0.86002298    -0.32400
C711        C  0.07427200  0.42960483  0.86582754     0.36800
C712        C  0.08530825  0.45670792  0.89400471    -0.05300
C713        C  0.11361734  0.46960015  0.91499114    -0.32300
C714        C  0.13033108  0.45505817  0.90873892     0.36700
H715        H  0.08064702  0.39278249  0.83925385     0.17100
O716        O  0.04636401  0.41631818  0.84522773    -0.59800
H717        H  0.12304799  0.49122307  0.93589089     0.17100
O718        O  0.15946174  0.46958125  0.92791968    -0.59900
H719        H  0.14906519  0.46202647  0.95480111     0.44100
H720        H  0.05847389  0.42798605  0.82003968     0.44100
C721        C  0.43352269  0.08600905  0.69866405    -0.05000
C722        C  0.40954862  0.07729341  0.67346366    -0.32400
C723        C  0.39209755  0.09112891  0.67958124     0.36800
C724        C  0.39894919  0.11459896  0.71107973    -0.05300
C725        C  0.42363487  0.12393422  0.73568021    -0.32300
C726        C  0.44065936  0.10977092  0.72986929     0.36700
H727        H  0.40328338  0.05866023  0.64966284     0.17100
O728        O  0.36654452  0.07954563  0.65623609    -0.59800
H729        H  0.42979549  0.14240579  0.75962495     0.17100
O730        O  0.46511316  0.12022875  0.75421366    -0.59900
H731        H  0.45001324  0.10521116  0.77711951     0.44100
H732        H  0.38059424  0.09111676  0.63134332     0.44100
C733        C  0.40931060  0.35360077  0.74974280    -0.05000
C734        C  0.42916380  0.34723975  0.76459525    -0.32400
C735        C  0.41484358  0.31199042  0.76820743     0.36800
C736        C  0.38027858  0.28242107  0.75685344    -0.05300
C737        C  0.35929173  0.28844736  0.74496792    -0.32300
C738        C  0.37321077  0.32346036  0.74162337     0.36700
H739        H  0.45672658  0.36957523  0.77138653     0.17100
O740        O  0.43618597  0.30680966  0.77928928    -0.59800
H741        H  0.33242836  0.26574873  0.73664814     0.17100
O742        O  0.35157441  0.32770449  0.72916164    -0.59900
H743        H  0.35046255  0.32070415  0.70160690     0.44100
H744        H  0.43496357  0.31022696  0.80750245     0.44100
C745        C  0.20157756  0.08319369  0.75287979    -0.05000
C746        C  0.19490073  0.10652553  0.75538524    -0.32400
C747        C  0.16106169  0.09381549  0.74863850     0.36800
C748        C  0.13301967  0.05705375  0.73984413    -0.05300
C749        C  0.13876987  0.03310369  0.74058942    -0.32300
C750        C  0.17301389  0.04611203  0.74680524     0.36700
H751        H  0.21690583  0.13513713  0.76000955     0.17100
O752        O  0.15588780  0.11768256  0.74987485    -0.59800
H753        H  0.11753852  0.00473023  0.73389648     0.17100
O754        O  0.17920753  0.02294363  0.74390278    -0.59900
H755        H  0.17675790  0.01720013  0.77065239     0.44100
H756        H  0.16807648  0.13028221  0.72516998     0.44100
C757        C  0.37074923  0.08731887  0.97329726    -0.05000
C758        C  0.39210727  0.09303085  0.93849955    -0.32400
C759        C  0.40893253  0.07876062  0.93102401     0.36800
C760        C  0.40479304  0.05790978  0.95869201    -0.05300
C761        C  0.38317824  0.05195996  0.99363941    -0.32300
C762        C  0.36629983  0.06644438  0.00105290     0.36700
H763        H  0.39664133  0.10951269  0.91696195     0.17100
O764        O  0.42933305  0.08551884  0.89627722    -0.59800
H765        H  0.37950484  0.03625451  0.01554725     0.17100
O766        O  0.34558761  0.05995407  0.03546416    -0.59900
H767        H  0.32033875  0.03790166  0.03101370     0.44100
H768        H  0.45367119  0.10960340  0.89934963     0.44100
C769        C  0.39317240  0.28105416  0.98096180    -0.05000
C770        C  0.37608800  0.28721786  0.46156383    -0.32400
C771        C  0.39151639  0.32164891  0.45219441     0.36800
C772        C  0.42399287  0.35059234  0.96211746    -0.05300
C773        C  0.44182124  0.34601955  0.98407067    -0.32300
C774        C  0.42655045  0.31163491  0.99362256     0.36700
H775        H  0.35021987  0.26395025  0.45162993     0.17100
O776        O  0.37304719  0.32457578  0.43086958    -0.59800
H777        H  0.46806400  0.36909884  0.99340883     0.17100
O778        O  0.44505600  0.30812979  0.01412820    -0.59900
H779        H  0.45997842  0.30528390  0.99470280     0.44100
H780        H  0.35487622  0.32327059  0.44954320     0.44100
C781        C  0.19915171  0.09362167  0.01408299    -0.05000
C782        C  0.18964949  0.11672482  0.52372799    -0.32400
C783        C  0.15374568  0.10129016  0.52166218     0.36800
C784        C  0.12730928  0.06388205  0.00968039    -0.05300
C785        C  0.13588974  0.04181621  0.00491467    -0.32300
C786        C  0.17170231  0.05663161  0.00629284     0.36700
H787        H  0.21035696  0.14545116  0.52906029     0.17100
O788        O  0.14590253  0.12326512  0.52694600    -0.59800
H789        H  0.11553331  0.01358273  0.99719795     0.17100
O790        O  0.18005047  0.03513075  0.99852103    -0.59900
H791        H  0.18461632  0.03440471  0.97023526     0.44100
H792        H  0.12940410  0.11563123  0.55119635     0.44100
C793        C  0.32802222  0.15167879  0.90633876    -0.05000
C794        C  0.30531713  0.15421502  0.89084649    -0.32400
C795        C  0.30719367  0.15708014  0.85085067     0.36800
C796        C  0.33158882  0.15647019  0.82404682    -0.05300
C797        C  0.35788235  0.15972913  0.84009914    -0.32300
C798        C  0.35668529  0.15791972  0.88008153     0.36700
H799        H  0.28749847  0.15655906  0.90988663     0.17100
O800        O  0.28776782  0.16421553  0.83854924    -0.59800
H801        H  0.38148799  0.16657083  0.82212851     0.17100
O802        O  0.38595371  0.16625226  0.89354160    -0.59900
H803        H  0.38956702  0.15018898  0.87938644     0.44100
H804        H  0.26252432  0.14708108  0.85152858     0.44100
C805        C  0.33509272  0.16079030  0.65606427    -0.05000
C806        C  0.30864079  0.12886565  0.63584101    -0.32400
C807        C  0.30746525  0.12802351  0.59601890     0.36800
C808        C  0.33347763  0.15951150  0.57403726    -0.05300
C809        C  0.36268528  0.19018560  0.59316812    -0.32300
C810        C  0.36402370  0.19088166  0.63310617     0.36700
H811        H  0.28892788  0.10367285  0.65067792     0.17100
O812        O  0.28197321  0.09554301  0.57828672    -0.59800
H813        H  0.38592951  0.21343601  0.57698881     0.17100
O814        O  0.39531543  0.21987232  0.64864673    -0.59900
H815        H  0.40106703  0.24170479  0.64081247     0.44100
H816        H  0.25780401  0.08612326  0.59127915     0.44100
C817        C  0.33179134  0.65851970  0.02963074     0.30500
C818        C  0.32930981  0.65395576  0.45082980     0.30500
C819        C  0.33908261  0.63514636  0.00612326    -0.05700
C820        C  0.29480050  0.64178709  0.01704298    -0.06500
C821        C  0.35825094  0.69400926  0.00677425    -0.06400
C822        C  0.33789832  0.63322650  0.46638389    -0.05700
C823        C  0.29379559  0.63941551  0.47690210    -0.06500
C824        C  0.35738724  0.69191415  0.46789075    -0.06400
C825        C  0.34596884  0.61217433  0.45130287    -0.31800
N826        N  0.35512071  0.60429654  0.47943194     0.14700
C827        C  0.35014090  0.61742788  0.01346092    -0.31800
H828        H  0.35696243  0.61703644  0.04064311     0.16700
C829        C  0.25800573  0.62036278  0.47161636    -0.30700
N830        N  0.23770816  0.61271187  0.00784618     0.13500
C831        C  0.26057351  0.62698251  0.03504701    -0.30700
C832        C  0.37030795  0.72401204  0.45582212    -0.31000
N833        N  0.38139710  0.74587037  0.98264933     0.14000
H834        H  0.36993354  0.72931119  0.42737532     0.16600
C835        C  0.37292497  0.72919630  0.01546992    -0.31000
H836        H  0.37398174  0.74082271  0.04371531     0.16600
H837        H  0.25260417  0.62596894  0.06553158     0.16600
H838        H  0.34595048  0.60373155  0.42166262     0.16700
H839        H  0.24651155  0.61119157  0.44470155     0.16600
C840        C  0.33478253  0.66311202  0.20122114     0.30500
C841        C  0.33278441  0.65903095  0.27986372     0.30500
C842        C  0.35509607  0.65255950  0.21291540    -0.05700
C843        C  0.35039017  0.69788993  0.22577872    -0.06500
C844        C  0.29676160  0.63601563  0.22403611    -0.06400
C845        C  0.35367193  0.64989943  0.25223281    -0.05700
C846        C  0.34989581  0.69588328  0.26512100    -0.06500
C847        C  0.29551249  0.63334185  0.26338856    -0.06400
C848        C  0.36661398  0.63297923  0.25505971    -0.31800
N849        N  0.37817597  0.62769708  0.21958775     0.14700
C850        C  0.37087555  0.63933083  0.19361280    -0.31800
H851        H  0.37607364  0.63799314  0.16288309     0.16700
C852        C  0.36202613  0.72835021  0.28207946    -0.30700
N853        N  0.36895580  0.74952403  0.25476374     0.13500
C854        C  0.36117076  0.73096866  0.22075551    -0.30700
C855        C  0.25898398  0.61086348  0.27807352    -0.31000
N856        N  0.23879313  0.60138318  0.24950909     0.14000
H857        H  0.24792582  0.60368000  0.30761606     0.16600
C858        C  0.26150919  0.61708095  0.21691648    -0.31000
H859        H  0.25305441  0.61697656  0.19069709     0.16600
H860        H  0.36206551  0.74054897  0.19457245     0.16600
H861        H  0.36571518  0.62301549  0.28090507     0.16700
H862        H  0.36392978  0.73536096  0.31227230     0.16600
O863        O  0.06564767  0.98300138  0.37292292    -0.74800
O864        O  0.04934266  0.96493629  0.43442715    -0.53700
C865        C  0.06530045  0.96852250  0.40061363     0.78900
O866        O  0.06392283  0.62184481  0.42017748    -0.59400
O867        O  0.01888537  0.59877284  0.38358873    -0.52400
C868        C  0.04874795  0.62529058  0.39757281     0.70900
O869        O  0.09370809  0.57270029  0.48036793    -0.74000
O870        O  0.06597190  0.51520853  0.49319098    -0.54500
C871        C  0.09312614  0.54960784  0.49366767     0.76900
O872        O  0.04649603  0.04605644  0.31635850    -0.59100
O873        O  0.50681740  0.55408078  0.32571896    -0.52200
C874        C  0.51717255  0.53733883  0.31127664     0.73500
Zr875      Zr  0.04269185  0.01195374  0.36252722     2.54700
O876        O  0.10397012  0.55563007  0.34210167    -0.79700
O877        O  0.54774457  0.98387857  0.30509294    -0.93100
Zr878      Zr  0.05569422  0.57442054  0.44814259     2.64700
O879        O  0.11966630  0.62000130  0.42325916    -0.98100
O880        O  0.06420355  0.61156185  0.50495961    -0.80100
O881        O  0.05652860  0.52810474  0.42307267    -0.83500
O882        O  0.03962076  0.55566777  0.38568632    -2.18200
O883        O  0.39773457  0.94111559  0.36780597    -0.66900
O884        O  0.42389351  0.99908860  0.36102153    -0.51400
C885        C  0.39731135  0.96477345  0.35825274     0.71900
O886        O  0.43434563  0.45222788  0.01443472    -0.59800
O887        O  0.97205497  0.94424687  0.01869888    -0.51700
C888        C  0.45640461  0.95718455  0.03456820     0.73700
O889        O  0.42259225  0.52790362  0.47822283    -0.71200
O890        O  0.44731604  0.55425032  0.42044041    -0.49800
C891        C  0.42677404  0.54648850  0.45210836     0.75100
O892        O  0.42510306  0.89247635  0.43280607    -0.66500
O893        O  0.47322301  0.91458491  0.46359510    -0.53700
C894        C  0.44151964  0.88851969  0.45293639     0.73500
Zr895      Zr  0.43636058  0.94052717  0.40104362     2.77500
O896        O  0.37347495  0.89200684  0.42740524    -0.97200
O897        O  0.43128042  0.90771736  0.34160842    -0.78100
Zr898      Zr  0.45372493  0.50749078  0.49081300     2.70100
O899        O  0.39560658  0.97668872  0.03469881    -0.79300
O900        O  0.97790728  0.55271047  0.04129995    -0.98400
Zr901      Zr  0.01140834  0.97823640  0.46155165     2.21500
Zr902      Zr  0.48187533  0.53756110  0.39044261     2.11100
O903        O  0.43413875  0.98589978  0.42824639    -2.47100
O904        O  0.45328201  0.96081270  0.46240228    -0.79100
O905        O  0.48465487  0.99334438  0.37304865    -0.71300
O906        O  0.01175119  0.52507185  0.48836381    -2.32300
O907        O  0.49570215  0.95980587  0.39796296    -2.28500
O908        O  0.99684175  0.55556087  0.45105622    -0.73100
H909        H  0.05730334  0.57689074  0.37040683     0.78900
H910        H  0.02148897  0.53591413  0.01476181     0.80000
H911        H  0.41024339  0.97811812  0.42909341     0.82300
H912        H  0.49521920  0.94041638  0.38882116     0.79900
H913        H  0.06553237  0.60108209  0.52563429     0.42900
H914        H  0.99070000  0.57513619  0.02763843     0.41900
H915        H  0.37564910  0.95915359  0.01849131     0.41500
H916        H  0.36528704  0.90433572  0.44156772     0.39500
H917        H  0.42251034  0.88460646  0.34984225     0.42600
H918        H  0.53188000  0.95821653  0.31151965     0.37400
H919        H  0.11170919  0.54298236  0.32771000     0.43500
H920        H  0.11945947  0.62414819  0.39682286     0.39900
H921        H  0.35931962  0.88017909  0.40511327     0.44800
H922        H  0.07256873  0.99232344  0.30083661     0.43600
H923        H  0.12836485  0.64239949  0.43769362     0.43700
H924        H  0.45575780  0.54623487  0.05788172     0.44100
O925        O  0.03782033  0.95358791  0.13065275    -0.74800
O926        O  0.02965652  0.94766803  0.19489553    -0.53700
C927        C  0.04057061  0.94410893  0.16073399     0.78900
O928        O  0.07337812  0.61590759  0.14164076    -0.59400
O929        O  0.02457070  0.59265531  0.11107486    -0.52400
C930        C  0.05667810  0.61939119  0.12129454     0.70900
O931        O  0.10230036  0.56685465  0.20627351    -0.74000
O932        O  0.06792736  0.51404603  0.23778676    -0.54500
C933        C  0.09841071  0.54559168  0.22818355     0.76900
O934        O  0.00435911  0.99808759  0.06557881    -0.59100
O935        O  0.46022985  0.49982077  0.07518974    -0.52200
C936        C  0.47475990  0.48720007  0.05959809     0.73500
Zr937      Zr  0.00833434  0.97396008  0.11477165     2.54700
O938        O  0.05272011  0.48376846  0.06235707    -0.79700
O939        O  0.46764002  0.91760554  0.08636161    -0.93100
Zr940      Zr  0.06571657  0.56905566  0.17088222     2.64700
O941        O  0.11504738  0.58781327  0.12049313    -0.98100
O942        O  0.10684171  0.62502397  0.20682439    -0.80100
O943        O  0.04640008  0.51049525  0.16523626    -0.83500
O944        O  0.03108219  0.53641811  0.11935026    -2.18200
O945        O  0.38464746  0.94147630  0.14866232    -0.66900
O946        O  0.41649148  0.99609121  0.12229468    -0.51400
C947        C  0.38733722  0.96315784  0.12888202     0.71900
O948        O  0.46436296  0.49252503  0.28216116    -0.59800
O949        O  0.99817738  0.98042532  0.28746692    -0.51700
C950        C  0.49039667  0.00156518  0.29819083     0.73700
O951        O  0.45141497  0.55935378  0.22567788    -0.71200
O952        O  0.45453672  0.56059587  0.16119129    -0.49800
C953        C  0.44650970  0.56698283  0.19562392     0.75100
O954        O  0.41020367  0.89724271  0.22492553    -0.66500
O955        O  0.46290812  0.91870049  0.24488899    -0.53700
C956        C  0.42856325  0.89337480  0.24151765     0.73500
Zr957      Zr  0.42074583  0.94247314  0.18851744     2.77500
O958        O  0.37305411  0.92838270  0.23879991    -0.97200
O959        O  0.38014563  0.88480399  0.15510556    -0.78100
Zr960      Zr  0.47882617  0.53629167  0.24153438     2.70100
O961        O  0.44592449  0.04003101  0.29768465    -0.79300
O962        O  0.02668724  0.59330400  0.26735544    -0.98400
Zr963      Zr  0.00747577  0.97786130  0.21961919     2.21500
Zr964      Zr  0.47722142  0.53051650  0.13585725     2.11100
O965        O  0.44107383  0.00182354  0.19405188    -2.47100
O966        O  0.45895419  0.97843454  0.23609050    -0.79100
O967        O  0.45861088  0.97240323  0.13276425    -0.71300
O968        O  0.02830948  0.53829491  0.22710353    -2.32300
O969        O  0.47120121  0.94490829  0.17263564    -2.28500
O970        O  0.01484330  0.56569795  0.18407081    -0.73100
H971        H  0.04752416  0.55204750  0.09802086     0.78900
H972        H  0.04485490  0.55235579  0.24621026     0.80000
H973        H  0.42005742  0.99985966  0.19843912     0.82300
H974        H  0.46327564  0.92113933  0.17049810     0.79900
H975        H  0.09774435  0.61844896  0.23404594     0.42900
H976        H  0.04060969  0.60969250  0.24542029     0.41900
H977        H  0.42042136  0.02258080  0.29136988     0.41500
H978        H  0.38635469  0.94712377  0.25890454     0.39500
H979        H  0.35660181  0.87110236  0.17172067     0.42600
H980        H  0.44307628  0.90888428  0.09619999     0.37400
H981        H  0.07706969  0.50257284  0.07142232     0.43500
H982        H  0.13593633  0.59756718  0.13413689     0.39900
H983        H  0.36058461  0.93441332  0.22803269     0.45800
H984        H  0.96788428  0.89903170  0.09812764     0.43600
H985        H  0.10761069  0.56506845  0.10825532     0.43700
H986        H  0.51852628  0.60446272  0.28131468     0.44100
C987        C  0.15764900  0.85565203  0.32632841     0.30500
C988        C  0.15853919  0.85878633  0.40550274     0.30500
C989        C  0.14914632  0.87749836  0.35067498    -0.05700
C990        C  0.13082245  0.81901685  0.34682905    -0.06500
C991        C  0.19410671  0.87198116  0.34009026    -0.06400
C992        C  0.14958191  0.87913141  0.39024602    -0.05700
C993        C  0.13150938  0.82105933  0.38699300    -0.06500
C994        C  0.19457502  0.87357683  0.38001207    -0.06400
C995        C  0.13897683  0.89792608  0.40599287    -0.31800
N996        N  0.13228316  0.90777852  0.37731392     0.14700
C997        C  0.13836555  0.89531785  0.34353160    -0.31800
H998        H  0.13430175  0.89818634  0.31582271     0.16700
C999        C  0.12111545  0.78939805  0.39684528    -0.30700
N1000       N  0.11265891  0.76760811  0.36578303     0.13500
C1001       C  0.11975109  0.78558251  0.33493776    -0.30700
C1002       C  0.22932579  0.88909184  0.38565310    -0.31000
N1003       N  0.24973262  0.89730920  0.35114603     0.14000
H1004       H  0.23929704  0.89400043  0.41274021     0.16600
C1005       C  0.22853766  0.88649456  0.32314242    -0.31000
H1006       H  0.23774138  0.88943620  0.29283820     0.16600
H1007       H  0.12047736  0.77645323  0.30571197     0.16600
H1008       H  0.13461909  0.90239273  0.43623176     0.16700
H1009       H  0.12270235  0.78363528  0.42431241     0.16600
C1010       C  0.15630720  0.85542380  0.07655792     0.30500
C1011       C  0.15543242  0.85437177  0.15547875     0.30500
C1012       C  0.13250816  0.86115052  0.10319598    -0.05700
C1013       C  0.14276953  0.82012655  0.09231308    -0.06500
C1014       C  0.19356648  0.88375401  0.09284147    -0.06400
C1015       C  0.13218207  0.86074372  0.14265994    -0.05700
C1016       C  0.14274580  0.81991352  0.13200046    -0.06500
C1017       C  0.19289290  0.88327216  0.13285839    -0.06400
C1018       C  0.11520866  0.87300320  0.16050429    -0.31800
N1019       N  0.10499100  0.88053819  0.13332379     0.14700
C1020       C  0.11509574  0.87297616  0.09833773    -0.31800
H1021       H  0.11146366  0.87711991  0.07113957     0.16700
C1022       C  0.13175952  0.78731311  0.13962490    -0.30700
N1023       N  0.12385361  0.76719380  0.10674648     0.13500
C1024       C  0.13073420  0.78697360  0.07765274    -0.30700
C1025       C  0.22739916  0.89869036  0.13912730    -0.31000
N1026       N  0.24901672  0.90954752  0.10556728     0.14000
H1027       H  0.23548016  0.89861330  0.16553900     0.16600
C1028       C  0.22864492  0.89908082  0.07706976    -0.31000
H1029       H  0.23784022  0.89933854  0.04707757     0.16600
H1030       H  0.12796530  0.77811997  0.04798374     0.16600
H1031       H  0.11287066  0.87853551  0.19085758     0.16700
H1032       H  0.12973320  0.77868092  0.16713996     0.16600
C1033       C  0.15457933  0.85471381  0.20022134    -0.05000
C1034       C  0.18184154  0.88626337  0.22034685    -0.32400
C1035       C  0.18303086  0.88685160  0.26019847     0.36800
C1036       C  0.15643024  0.85546931  0.28219434    -0.05300
C1037       C  0.12657405  0.82539676  0.26312312    -0.32300
C1038       C  0.12522752  0.82492923  0.22323324     0.36700
H1039       H  0.20222843  0.91135677  0.20544943     0.17100
O1040       O  0.20927908  0.91898893  0.27789277    -0.59800
H1041       H  0.10299597  0.80232579  0.27931603     0.17100
O1042       O  0.09387208  0.79620923  0.20755263    -0.59900
H1043       H  0.08765374  0.77416409  0.21548339     0.44100
H1044       H  0.23310372  0.92767598  0.26460019     0.44100
C1045       C  0.15623034  0.85747491  0.03254517    -0.05000
C1046       C  0.18442882  0.88728070  0.51126336    -0.32400
C1047       C  0.18547481  0.88918579  0.47124961     0.36800
C1048       C  0.15705194  0.85937736  0.45054327    -0.05300
C1049       C  0.12573997  0.83044750  0.47318870    -0.32300
C1050       C  0.12496181  0.82828516  0.51299270     0.36700
H1051       H  0.20679031  0.91301241  0.02544041     0.17100
O1052       O  0.21319666  0.92124710  0.45317357    -0.59800
H1053       H  0.10095590  0.80916093  0.46027877     0.17100
O1054       O  0.09323322  0.79986877  0.53294377    -0.59900
H1055       H  0.08723030  0.77777888  0.52030598     0.44100
H1056       H  0.23633508  0.92978250  0.46047508     0.44100
C1057       C  0.07579018  0.65735404  0.11124189    -0.05000
C1058       C  0.11024795  0.68612371  0.12391841    -0.32400
C1059       C  0.12695318  0.72213811  0.12060230     0.36800
C1060       C  0.10966381  0.73067409  0.10438086    -0.05300
C1061       C  0.07653548  0.70251374  0.08930383    -0.32300
C1062       C  0.05960416  0.66614548  0.09251783     0.36700
H1063       H  0.12407397  0.68086609  0.13779082     0.17100
O1064       O  0.15991909  0.74897430  0.13440046    -0.59800
H1065       H  0.06291520  0.70865819  0.07658337     0.17100
O1066       O  0.02645903  0.63956133  0.07897808    -0.59900
H1067       H  0.03191862  0.64018157  0.05072427     0.44100
H1068       H  0.17850397  0.75632243  0.11211338     0.44100
C1069       C  0.35384299  0.94956311  0.11445971    -0.05000
C1070       C  0.34870587  0.97359032  0.11127081    -0.32400
C1071       C  0.31465635  0.96066552  0.10498618     0.36800
C1072       C  0.28549513  0.92345566  0.10148744    -0.05300
C1073       C  0.29132816  0.89964475  0.10110037    -0.32300
C1074       C  0.32531182  0.91242756  0.10747768     0.36700
H1075       H  0.37035656  0.00222930  0.11606512     0.17100
O1076       O  0.30913204  0.98420282  0.10568098    -0.59800
H1077       H  0.26880625  0.87092197  0.09816904     0.17100
O1078       O  0.33019323  0.88843807  0.10746974    -0.59900
H1079       H  0.31740548  0.87593173  0.13217322     0.44100
H1080       H  0.32075087  0.99615192  0.08060200     0.44100
C1081       C  0.05777457  0.92840111  0.15519085    -0.05000
C1082       C  0.08394953  0.93870809  0.12356443    -0.32400
C1083       C  0.09990895  0.92352679  0.11631127     0.36800
C1084       C  0.08935406  0.89700786  0.14058108    -0.05300
C1085       C  0.06381267  0.88732045  0.17282346    -0.32300
C1086       C  0.04829908  0.90302122  0.18045734     0.36700
H1087       H  0.09250528  0.95904580  0.10450595     0.17100
O1088       O  0.12729449  0.93630970  0.08672385    -0.59800
H1089       H  0.05551917  0.86714000  0.19189997     0.17100
O1090       O  0.02279808  0.89218914  0.21170067    -0.59900
H1091       H  0.03703088  0.90796723  0.23320030     0.44100
H1092       H  0.11523374  0.92777777  0.06302165     0.44100
C1093       C  0.10059949  0.73240172  0.36690335    -0.05000
C1094       C  0.11720538  0.72723168  0.38959981    -0.32400
C1095       C  0.10083055  0.69280755  0.39979181     0.36800
C1096       C  0.06739533  0.66228888  0.38632400    -0.05300
C1097       C  0.05202035  0.66752464  0.36140304    -0.32300
C1098       C  0.06843874  0.70227729  0.35169813     0.36700
H1099       H  0.14223312  0.75029913  0.40115863     0.17100
O1100       O  0.11765325  0.68961533  0.42347914    -0.59800
H1101       H  0.02663163  0.64475070  0.35022095     0.17100
O1102       O  0.05125762  0.70662030  0.33005862    -0.59900
H1103       H  0.05985952  0.70517996  0.30313377     0.44100
H1104       H  0.11166365  0.69556459  0.44955161     0.44100
C1105       C  0.36204275  0.95084880  0.34757039    -0.05000
C1106       C  0.33702997  0.91509198  0.33366898    -0.32400
C1107       C  0.30031712  0.89777066  0.33302720     0.36800
C1108       C  0.28805174  0.91618151  0.34590712    -0.05300
C1109       C  0.31316428  0.95240292  0.35767242    -0.32300
C1110       C  0.34991498  0.96985383  0.35849857     0.36700
H1111       H  0.34545906  0.89976934  0.32542153     0.17100
O1112       O  0.27609170  0.86211120  0.32221444    -0.59800
H1113       H  0.30373646  0.96659778  0.36805597     0.17100
O1114       O  0.37335492  0.50421406  0.37424940    -0.59900
H1115       H  0.38176880  0.52041356  0.35327120     0.44100
H1116       H  0.26491860  0.84870664  0.34641235     0.44100
C1117       C  0.11707237  0.92462825  0.38204696    -0.05000
C1118       C  0.08982470  0.91259343  0.35962669    -0.32400
C1119       C  0.07332517  0.92728519  0.36488559     0.36800
C1120       C  0.08392365  0.95437818  0.39297681    -0.05300
C1121       C  0.11144793  0.96686578  0.41504708    -0.32300
C1122       C  0.12818264  0.95235219  0.40962410     0.36700
H1123       H  0.08048984  0.89092994  0.33872530     0.17100
O1124       O  0.04523938  0.91339783  0.34422859    -0.59800
H1125       H  0.12009450  0.98804576  0.43643056     0.17100
O1126       O  0.15627922  0.96632124  0.43028748    -0.59900
H1127       H  0.14483572  0.95848132  0.45691227     0.44100
H1128       H  0.05707927  0.92376032  0.31844141     0.44100
C1129       C  0.42985480  0.58354898  0.20121965    -0.05000
C1130       C  0.40935890  0.57819392  0.17351939    -0.32400
C1131       C  0.39233858  0.59253556  0.17879529     0.36800
C1132       C  0.39581592  0.61298127  0.21225099    -0.05300
C1133       C  0.41691487  0.61877833  0.23948921    -0.32300
C1134       C  0.43350117  0.60417760  0.23443719     0.36700
H1135       H  0.40575672  0.56208541  0.14796174     0.17100
O1136       O  0.37082859  0.58467022  0.15208044    -0.59800
H1137       H  0.42090139  0.63507355  0.26496372     0.17100
O1138       O  0.45434191  0.61141949  0.26165312    -0.59900
H1139       H  0.43672980  0.59372993  0.28200835     0.44100
H1140       H  0.38799576  0.59872475  0.12930340     0.44100
C1141       C  0.40951907  0.85635031  0.25434549    -0.05000
C1142       C  0.42909553  0.84977545  0.26952657    -0.32400
C1143       C  0.41473601  0.81441569  0.27280257     0.36800
C1144       C  0.38059188  0.78493293  0.26032803    -0.05300
C1145       C  0.35955941  0.79114179  0.24896633    -0.32300
C1146       C  0.37338385  0.82624695  0.24634467     0.36700
H1147       H  0.45650279  0.87205251  0.27678859     0.17100
O1148       O  0.43568203  0.80915806  0.28484370    -0.59800
H1149       H  0.33278550  0.76855793  0.24036771     0.17100
O1150       O  0.35174696  0.83061462  0.23421457    -0.59900
H1151       H  0.35239977  0.82581661  0.20619416     0.44100
H1152       H  0.42997429  0.80762898  0.31307375     0.44100
C1153       C  0.20152059  0.58575378  0.25379467    -0.05000
C1154       C  0.19423454  0.60863779  0.25690751    -0.32400
C1155       C  0.16001500  0.59544856  0.25072953     0.36800
C1156       C  0.13207264  0.55855681  0.24205534    -0.05300
C1157       C  0.13851901  0.53508403  0.24219961    -0.32300
C1158       C  0.17321158  0.54862404  0.24759096     0.36700
H1159       H  0.21602879  0.63729701  0.26154904     0.17100
O1160       O  0.15439799  0.61900468  0.25227617    -0.59800
H1161       H  0.11751738  0.50669246  0.23540354     0.17100
O1162       O  0.18013142  0.52597973  0.24350885    -0.59900
H1163       H  0.17362537  0.51637466  0.26936631     0.44100
H1164       H  0.16733074  0.63247549  0.22812185     0.44100
C1165       C  0.37178523  0.58861682  0.47296743    -0.05000
C1166       C  0.39406672  0.59525815  0.43861394    -0.32400
C1167       C  0.41168713  0.58171855  0.43143838     0.36800
C1168       C  0.40725917  0.56042966  0.45883390    -0.05300
C1169       C  0.38476070  0.55360861  0.49331767    -0.32300
C1170       C  0.36711591  0.56737392  0.50043732     0.36700
H1171       H  0.39874815  0.61196830  0.41725915     0.17100
O1172       O  0.43322714  0.58970982  0.39727878    -0.59800
H1173       H  0.38079615  0.53756951  0.51502317     0.17100
O1174       O  0.34522183  0.55961615  0.53422082    -0.59900
H1175       H  0.32034557  0.53753035  0.52867418     0.44100
H1176       H  0.45746384  0.61344443  0.40169101     0.44100
C1177       C  0.39165782  0.78201805  0.48398177    -0.05000
C1178       C  0.37545424  0.78559948  0.95963427    -0.32400
C1179       C  0.39011545  0.81983764  0.95070906     0.36800
C1180       C  0.42293102  0.85165470  0.46501656    -0.05300
C1181       C  0.44031461  0.84693932  0.48753734    -0.32300
C1182       C  0.42484667  0.81249588  0.49707508     0.36700
H1183       H  0.34915914  0.76209731  0.95074895     0.17100
O1184       O  0.37046567  0.82243096  0.93103457    -0.59800
H1185       H  0.46653479  0.86991959  0.49700588     0.17100
O1186       O  0.44323250  0.80880922  0.51755332    -0.59900
H1187       H  0.45740755  0.80501084  0.49812777     0.44100
H1188       H  0.35321693  0.82165377  0.95083130     0.44100
C1189       C  0.20043389  0.59607198  0.51160808    -0.05000
C1190       C  0.18977399  0.61564987  0.02362291    -0.32400
C1191       C  0.15408935  0.60060171  0.02116266     0.36800
C1192       C  0.12782825  0.56426375  0.50690747    -0.05300
C1193       C  0.13735914  0.54302122  0.50290187    -0.32300
C1194       C  0.17351401  0.55882901  0.50455662     0.36700
H1195       H  0.21032562  0.64408110  0.03051099     0.17100
O1196       O  0.14602559  0.62237466  0.02782525    -0.59800
H1197       H  0.11739336  0.51457831  0.49586059     0.17100
O1198       O  0.18268132  0.53798076  0.49798997    -0.59900
H1199       H  0.18677089  0.53623924  0.46975478     0.44100
H1200       H  0.13945326  0.62207166  0.05584545     0.44100
C1201       C  0.32983928  0.65424958  0.40632243    -0.05000
C1202       C  0.30763328  0.65773135  0.39134627    -0.32400
C1203       C  0.30859626  0.65982129  0.35147149     0.36800
C1204       C  0.33220650  0.65839310  0.32431986    -0.05300
C1205       C  0.35844247  0.66112110  0.33977971    -0.32300
C1206       C  0.35768951  0.65936284  0.37964250     0.36700
H1207       H  0.29077337  0.66119470  0.41063932     0.17100
O1208       O  0.28892118  0.66681419  0.33956065    -0.59800
H1209       H  0.38159636  0.66730925  0.32139749     0.17100
O1210       O  0.38661256  0.66656432  0.39249173    -0.59900
H1211       H  0.38951216  0.65014126  0.37783771     0.44100
H1212       H  0.26375538  0.64952527  0.35267392     0.44100
C1213       C  0.33510490  0.66296971  0.15655245    -0.05000
C1214       C  0.30860069  0.63069443  0.13670041    -0.32400
C1215       C  0.30729154  0.62909365  0.09671306     0.36800
C1216       C  0.33345022  0.66007801  0.07396933    -0.05300
C1217       C  0.36256170  0.69115613  0.09289801    -0.32300
C1218       C  0.36378536  0.69273261  0.13308537     0.36700
H1219       H  0.28883837  0.60578069  0.15203023     0.17100
O1220       O  0.28138931  0.59634419  0.07966619    -0.59800
H1221       H  0.38580193  0.71416195  0.07643553     0.17100
O1222       O  0.39475101  0.72244199  0.14847057    -0.59900
H1223       H  0.39949752  0.74367432  0.14042846     0.44100
H1224       H  0.25740609  0.58720649  0.09298276     0.44100
C1225       C  0.33216026  0.65920277  0.52966932     0.30500
C1226       C  0.32769950  0.65169747  0.95072462     0.30500
C1227       C  0.34002218  0.63644189  0.50578165    -0.05700
C1228       C  0.29529840  0.64266006  0.51665120    -0.06500
C1229       C  0.35879549  0.69517768  0.50790246    -0.06400
C1230       C  0.33656051  0.63138729  0.96666439    -0.05700
C1231       C  0.29258599  0.63774894  0.97734842    -0.06500
C1232       C  0.35610241  0.68976103  0.96692549    -0.06400
C1233       C  0.34481609  0.61051220  0.95173647    -0.31800
N1234       N  0.35379561  0.60271397  0.98006214     0.14700
C1235       C  0.35124422  0.61882786  0.51290503    -0.31800
H1236       H  0.35810827  0.61856088  0.54010372     0.16700
C1237       C  0.25664726  0.61868616  0.97284249    -0.30700
N1238       N  0.23837357  0.61366497  0.50626752     0.13500
C1239       C  0.26069935  0.62743166  0.53399100    -0.30700
C1240       C  0.37066857  0.72191198  0.95329037    -0.31000
N1241       N  0.37937538  0.74681286  0.48615510     0.14000
H1242       H  0.37032003  0.72665625  0.92453299     0.16600
C1243       C  0.37139768  0.72944068  0.51809531    -0.31000
H1244       H  0.37125049  0.73973639  0.54684229     0.16600
H1245       H  0.25214629  0.62586705  0.56437825     0.16600
H1246       H  0.34525602  0.60226326  0.92207061     0.16700
H1247       H  0.24459307  0.60904386  0.94624042     0.16600
C1248       C  0.33419281  0.66070146  0.70052178     0.30500
C1249       C  0.33274314  0.65760177  0.77927653     0.30500
C1250       C  0.35600792  0.65208872  0.71234994    -0.05700
C1251       C  0.34818826  0.69500667  0.72473996    -0.06500
C1252       C  0.29649618  0.63257353  0.72321780    -0.06400
C1253       C  0.35496733  0.64984771  0.75174429    -0.05700
C1254       C  0.34808814  0.69372845  0.76412720    -0.06500
C1255       C  0.29550652  0.63051025  0.76273049    -0.06400
C1256       C  0.36824274  0.63315301  0.75436572    -0.31800
N1257       N  0.37927290  0.62754116  0.71872384     0.14700
C1258       C  0.37150114  0.63872749  0.69289521    -0.31800
H1259       H  0.37591254  0.63667700  0.66214196     0.16700
C1260       C  0.35908181  0.72601700  0.78032221    -0.30700
N1261       N  0.36478405  0.74607549  0.75241773     0.13500
C1262       C  0.35750090  0.72714969  0.71879393    -0.30700
C1263       C  0.25912719  0.60886007  0.77776727    -0.31000
N1264       N  0.23886357  0.59916242  0.74924376     0.14000
H1265       H  0.24830136  0.60281824  0.80751520     0.16600
C1266       C  0.26132484  0.61406769  0.71640593    -0.31000
H1267       H  0.25286498  0.61429240  0.69037743     0.16600
H1268       H  0.35826975  0.73602977  0.69212271     0.16600
H1269       H  0.36782323  0.62343003  0.78011061     0.16700
H1270       H  0.36153234  0.73384061  0.81030606     0.16600
O1271       O  0.06639099  0.98456813  0.87428287    -0.74800
O1272       O  0.04885025  0.96487729  0.93517155    -0.53700
C1273       C  0.06549838  0.96931506  0.90152302     0.78900
O1274       O  0.06373966  0.62399641  0.92428054    -0.59400
O1275       O  0.01911731  0.60017771  0.88659566    -0.52400
C1276       C  0.04842505  0.62691798  0.90124649     0.70900
O1277       O  0.09446927  0.57400702  0.98284784    -0.74000
O1278       O  0.06615526  0.51626959  0.99548011    -0.54500
C1279       C  0.09346674  0.55052645  0.99601241     0.76900
O1280       O  0.04683153  0.04731869  0.81816013    -0.59100
O1281       O  0.50537335  0.55254263  0.82551627    -0.52200
C1282       C  0.51483423  0.53501954  0.81118397     0.73500
Zr1283     Zr  0.04265523  0.01276473  0.86406497     2.54700
O1284       O  0.10837093  0.56375220  0.85356175    -0.79700
O1285       O  0.54265676  0.97951045  0.80660477    -0.93100
Zr1286     Zr  0.05636503  0.57684101  0.95187201     2.64700
O1287       O  0.12047271  0.62479263  0.92899289    -0.98100
O1288       O  0.06407661  0.61262630  0.00967637    -0.80100
O1289       O  0.05804866  0.53107637  0.92721681    -0.83500
O1290       O  0.04082665  0.55854469  0.88928803    -2.18200
O1291       O  0.39715759  0.94057007  0.86756996    -0.66900
O1292       O  0.42378654  0.99861284  0.85996920    -0.51400
C1293       C  0.39709367  0.96433627  0.85746463     0.71900
O1294       O  0.43703517  0.45359078  0.51297751    -0.59800
O1295       O  0.97457660  0.94581451  0.51881464    -0.51700
C1296       C  0.45759194  0.95669336  0.53266992     0.73700
O1297       O  0.41896728  0.52451628  0.97804710    -0.71200
O1298       O  0.44396566  0.55105646  0.92034474    -0.49800
C1299       C  0.42325416  0.54311785  0.95194271     0.75100
O1300       O  0.42519800  0.89143159  0.93146192    -0.66500
O1301       O  0.47321356  0.91416906  0.96290154    -0.53700
C1302       C  0.44216069  0.88776567  0.95102409     0.73500
Zr1303     Zr  0.43479167  0.93953585  0.90231535     2.77500
O1304       O  0.37233539  0.89460384  0.93222825    -0.97200
O1305       O  0.42497262  0.90195361  0.84567431    -0.78100
Zr1306     Zr  0.45124887  0.50554851  0.99053410     2.70100
O1307       O  0.39682119  0.97680570  0.53432668    -0.79300
O1308       O  0.97782379  0.55044232  0.54159455    -0.98400
Zr1309     Zr  0.01090171  0.97831721  0.96263997     2.21500
Zr1310     Zr  0.47952419  0.53557748  0.88988791     2.11100
O1311       O  0.43311923  0.98529979  0.92859092    -2.47100
O1312       O  0.45162611  0.95962250  0.96385943    -0.79100
O1313       O  0.48307949  0.99192700  0.87340578    -0.71300
O1314       O  0.01201768  0.52653732  0.99048864    -2.32300
O1315       O  0.49419288  0.95906517  0.89939739    -2.28500
O1316       O  0.99704432  0.55674674  0.95338769    -0.73100
H1317       H  0.05847643  0.58014529  0.87456918     0.78900
H1318       H  0.02119451  0.53421199  0.51269817     0.80000
H1319       H  0.40929335  0.97758033  0.92903136     0.82300
H1320       H  0.49366517  0.93963652  0.89035561     0.79900
H1321       H  0.06763098  0.60316802  0.02931585     0.42900
H1322       H  0.99108824  0.57345489  0.52891362     0.41900
H1323       H  0.37698233  0.96330386  0.51764577     0.41500
H1324       H  0.36597442  0.90868126  0.94572582     0.39500
H1325       H  0.43602308  0.91818096  0.82392233     0.42600
H1326       H  0.52794138  0.95448163  0.81470932     0.37400
H1327       H  0.11375850  0.56612231  0.82541807     0.43500
H1328       H  0.12068259  0.63002584  0.90293120     0.39900
H1329       H  0.35711735  0.88222651  0.91077486     0.44800
H1330       H  0.07046828  0.99027642  0.80313661     0.43600
H1331       H  0.12807618  0.64629610  0.94471488     0.43700
H1332       H  0.45939691  0.55013989  0.55664014     0.44100
O1333       O  0.03968187  0.95489127  0.63202569    -0.74800
O1334       O  0.02883629  0.94640341  0.69601274    -0.53700
C1335       C  0.04098578  0.94396151  0.66195377     0.78900
O1336       O  0.07334468  0.61594707  0.64201203    -0.59400
O1337       O  0.02488081  0.59173137  0.61024129    -0.52400
C1338       C  0.05639087  0.61880350  0.62139189     0.70900
O1339       O  0.10454398  0.56886666  0.70490642    -0.74000
O1340       O  0.07063703  0.51562736  0.73530371    -0.54500
C1341       C  0.10085481  0.54742083  0.72622928     0.76900
O1342       O  0.00625576  0.99949476  0.56618229    -0.59100
O1343       O  0.46121446  0.49962629  0.57456791    -0.52200
C1344       C  0.47638161  0.48767108  0.55902698     0.73500
Zr1345     Zr  0.01059775  0.97564313  0.61559452     2.54700
O1346       O  0.06045798  0.49259635  0.56653979    -0.79700
O1347       O  0.46977349  0.91738426  0.58646551    -0.93100
Zr1348     Zr  0.06716552  0.56950179  0.66930993     2.64700
O1349       O  0.11277361  0.58419437  0.61581708    -0.98100
O1350       O  0.11228892  0.62788646  0.69955047    -0.80100
O1351       O  0.04804993  0.51110493  0.66450845    -0.83500
O1352       O  0.03174478  0.53633426  0.61837813    -2.18200
O1353       O  0.38464489  0.94144726  0.64751532    -0.66900
O1354       O  0.41695265  0.99550638  0.61965954    -0.51400
C1355       C  0.38752743  0.96278706  0.62696047     0.71900
O1356       O  0.46120041  0.49066328  0.78321814    -0.59800
O1357       O  0.99883189  0.98179394  0.78877136    -0.51700
C1358       C  0.48793131  0.99987701  0.79826855     0.73700
O1359       O  0.44959441  0.55712924  0.72363200    -0.71200
O1360       O  0.45460826  0.55971758  0.65907840    -0.49800
C1361       C  0.44587868  0.56559230  0.69334784     0.75100
O1362       O  0.40859536  0.89514251  0.72136252    -0.66500
O1363       O  0.46077059  0.91639274  0.74257215    -0.53700
C1364       C  0.42662008  0.89096386  0.73804683     0.73500
Zr1365     Zr  0.42061615  0.94174708  0.68641580     2.77500
O1366       O  0.37127901  0.92565924  0.73529126    -0.97200
O1367       O  0.38261803  0.88546112  0.64996550    -0.78100
Zr1368     Zr  0.47629799  0.53395724  0.74116127     2.70100
O1369       O  0.44686943  0.04157236  0.79695234    -0.79300
O1370       O  0.02930957  0.59428848  0.76723490    -0.98400
Zr1371     Zr  0.00749935  0.97766999  0.72088523     2.21500
Zr1372     Zr  0.47735691  0.52965933  0.63529869     2.11100
O1373       O  0.44078762  0.00100333  0.69232983    -2.47100
O1374       O  0.45765211  0.97708810  0.73516355    -0.79100
O1375       O  0.45933202  0.97219956  0.63124599    -0.71300
O1376       O  0.03065220  0.53956774  0.72639547    -2.32300
O1377       O  0.47119465  0.94436933  0.67172968    -2.28500
O1378       O  0.01629438  0.56604751  0.68327089    -0.73100
H1379       H  0.04697374  0.55083152  0.59605477     0.78900
H1380       H  0.04706883  0.55346416  0.74570042     0.80000
H1381       H  0.41968563  0.99889010  0.69638107     0.82300
H1382       H  0.46335879  0.92064244  0.66928512     0.79900
H1383       H  0.10665957  0.62327677  0.72730411     0.42900
H1384       H  0.04813660  0.60781400  0.74531036     0.41900
H1385       H  0.42134171  0.02547401  0.79094970     0.41500
H1386       H  0.35278151  0.89900464  0.73418655     0.39500
H1387       H  0.35844033  0.87066073  0.66541510     0.42600
H1388       H  0.44508351  0.90904357  0.59409180     0.37400
H1389       H  0.08288174  0.51430724  0.57723428     0.43500
H1390       H  0.13338682  0.61036562  0.61903564     0.39900
H1391       H  0.38159454  0.93158378  0.75966097     0.45800
H1392       H  0.97344978  0.90180050  0.59639597     0.43600
H1393       H  0.12186574  0.57280732  0.62180303     0.43700
H1394       H  0.51093724  0.59958306  0.78507085     0.44100
C1395       C  0.15765830  0.85590417  0.82622601     0.30500
C1396       C  0.15875045  0.85972877  0.90542233     0.30500
C1397       C  0.14993751  0.87854750  0.85013635    -0.05700
C1398       C  0.13017001  0.81954581  0.84720572    -0.06500
C1399       C  0.19388603  0.87157585  0.83995411    -0.06400
C1400       C  0.15044912  0.88045300  0.88974313    -0.05700
C1401       C  0.13097123  0.82197504  0.88734197    -0.06500
C1402       C  0.19453677  0.87365140  0.87986668    -0.06400
C1403       C  0.13915836  0.89864447  0.90532308    -0.31800
N1404       N  0.13215116  0.90809621  0.87655837     0.14700
C1405       C  0.13845171  0.89571121  0.84284205    -0.31800
H1406       H  0.13395873  0.89806245  0.81512460     0.16700
C1407       C  0.11888799  0.78981078  0.89792706    -0.30700
N1408       N  0.10939226  0.76744755  0.86730209     0.13500
C1409       C  0.11737185  0.78535979  0.83596912    -0.30700
C1410       C  0.22942465  0.88939814  0.88539123    -0.31000
N1411       N  0.24962003  0.89701455  0.85078325     0.14000
H1412       H  0.23967472  0.89507061  0.91250084     0.16600
C1413       C  0.22818737  0.88573352  0.82288463    -0.31000
H1414       H  0.23722810  0.88835958  0.79255193     0.16600
H1415       H  0.11771762  0.77562210  0.80696467     0.16600
H1416       H  0.13442606  0.90285861  0.93554829     0.16700
H1417       H  0.12043198  0.78402906  0.92540172     0.16600
C1418       C  0.15572969  0.85396429  0.57662665     0.30500
C1419       C  0.15558965  0.85363474  0.65545399     0.30500
C1420       C  0.13203481  0.85979232  0.60330383    -0.05700
C1421       C  0.14250795  0.81890229  0.59269625    -0.06500
C1422       C  0.19313182  0.88250583  0.59251164    -0.06400
C1423       C  0.13191680  0.85955996  0.64274563    -0.05700
C1424       C  0.14295752  0.81911482  0.63236887    -0.06500
C1425       C  0.19287825  0.88245214  0.63249758    -0.06400
C1426       C  0.11482212  0.87170798  0.66064432    -0.31800
N1427       N  0.10459043  0.87927434  0.63350972     0.14700
C1428       C  0.11477444  0.87182518  0.59849684    -0.31800
H1429       H  0.11136299  0.87627733  0.57134168     0.16700
C1430       C  0.13195537  0.78662097  0.64046039    -0.30700
N1431       N  0.12348379  0.76619030  0.60785198     0.13500
C1432       C  0.13005124  0.78554074  0.57850509    -0.30700
C1433       C  0.22749539  0.89781751  0.63830086    -0.31000
N1434       N  0.24878286  0.90842462  0.60453248     0.14000
H1435       H  0.23585980  0.89780822  0.66452383     0.16600
C1436       C  0.22803684  0.89758057  0.57634533    -0.31000
H1437       H  0.23683025  0.89727878  0.54632904     0.16600
H1438       H  0.12641784  0.77607895  0.54905649     0.16600
H1439       H  0.11244547  0.87720218  0.69100310     0.16700
H1440       H  0.13001214  0.77815504  0.66805832     0.16600
C1441       C  0.15497100  0.85423334  0.70009551    -0.05000
C1442       C  0.18275069  0.88565377  0.71989342    -0.32400
C1443       C  0.18382913  0.88649067  0.75977882     0.36800
C1444       C  0.15660312  0.85546360  0.78208571    -0.05300
C1445       C  0.12644306  0.82559181  0.76324892    -0.32300
C1446       C  0.12524926  0.82487689  0.72332011     0.36700
H1447       H  0.20349349  0.91056916  0.70480518     0.17100
O1448       O  0.21047004  0.91861853  0.77721689    -0.59800
H1449       H  0.10252045  0.80294022  0.77962152     0.17100
O1450       O  0.09373395  0.79635970  0.70775822    -0.59900
H1451       H  0.08744556  0.77421349  0.71545157     0.44100
H1452       H  0.23413481  0.92719798  0.76350561     0.44100
C1453       C  0.15556246  0.85590524  0.53261129    -0.05000
C1454       C  0.18501552  0.88884327  0.01109679    -0.32400
C1455       C  0.18579918  0.89061462  0.97105916     0.36800
C1456       C  0.15734327  0.86066713  0.95050922    -0.05300
C1457       C  0.12609487  0.83193487  0.97336833    -0.32300
C1458       C  0.12557172  0.82978260  0.01305463     0.36700
H1459       H  0.20610376  0.91146049  0.52567211     0.17100
O1460       O  0.21318558  0.92265726  0.95281817    -0.59800
H1461       H  0.10106425  0.81082071  0.96080593     0.17100
O1462       O  0.09399364  0.80123353  0.03303927    -0.59900
H1463       H  0.08799243  0.77921656  0.02015178     0.44100
H1464       H  0.23650680  0.93123380  0.95956277     0.44100
C1465       C  0.07441632  0.65634248  0.61203721    -0.05000
C1466       C  0.11130005  0.68487092  0.61821261    -0.32400
C1467       C  0.12790647  0.72091354  0.61553677     0.36800
C1468       C  0.10811597  0.72940021  0.60597062    -0.05300
C1469       C  0.07183795  0.70130556  0.59830912    -0.32300
C1470       C  0.05486735  0.66503828  0.60142058     0.36700
H1471       H  0.12721926  0.67937769  0.62641411     0.17100
O1472       O  0.16323374  0.74783325  0.62363054    -0.59800
H1473       H  0.05613861  0.70762237  0.59166665     0.17100
O1474       O  0.01853792  0.63863115  0.59672437    -0.59900
H1475       H  0.01786002  0.63362623  0.56876594     0.44100
H1476       H  0.17853572  0.75194548  0.59918315     0.44100
C1477       C  0.35383422  0.94874879  0.61248993    -0.05000
C1478       C  0.34896132  0.97257775  0.60701742    -0.32400
C1479       C  0.31477436  0.95933110  0.60064644     0.36800
C1480       C  0.28515407  0.92204107  0.59992989    -0.05300
C1481       C  0.29063580  0.89826290  0.60177592    -0.32300
C1482       C  0.32474929  0.91130101  0.60784359     0.36700
H1483       H  0.37100997  0.00140746  0.60987374     0.17100
O1484       O  0.30971846  0.98286271  0.59832810    -0.59800
H1485       H  0.26777511  0.86947095  0.60083045     0.17100
O1486       O  0.32913939  0.88721358  0.61005648    -0.59900
H1487       H  0.31699649  0.87635535  0.63561430     0.44100
H1488       H  0.31895674  0.99131159  0.57162042     0.44100
C1489       C  0.05788926  0.92780815  0.65618279    -0.05000
C1490       C  0.08543638  0.93939528  0.62566875    -0.32400
C1491       C  0.10085204  0.92363563  0.61784947     0.36800
C1492       C  0.08896975  0.89578416  0.64086958    -0.05300
C1493       C  0.06194153  0.88463387  0.67189642    -0.32300
C1494       C  0.04636329  0.90032411  0.67962717     0.36700
H1495       H  0.09523444  0.96094529  0.60772149     0.17100
O1496       O  0.12868834  0.93680538  0.58871801    -0.59800
H1497       H  0.05236782  0.86313237  0.68973488     0.17100
O1498       O  0.01854335  0.88719297  0.70877403    -0.59900
H1499       H  0.03073425  0.90048071  0.73212988     0.44100
H1500       H  0.11699438  0.92843848  0.56477721     0.44100
C1501       C  0.09750139  0.73246164  0.86910978    -0.05000
C1502       C  0.11570800  0.72835013  0.89055711    -0.32400
C1503       C  0.10014537  0.69446324  0.90157071     0.36800
C1504       C  0.06602627  0.66347307  0.88998811    -0.05300
C1505       C  0.04875530  0.66763597  0.86664054    -0.32300
C1506       C  0.06425595  0.70183698  0.85629797     0.36700
H1507       H  0.14141990  0.75190788  0.90052930     0.17100
O1508       O  0.11843441  0.69228529  0.92414842    -0.59800
H1509       H  0.02261455  0.64445033  0.85716916     0.17100
O1510       O  0.04536395  0.70522318  0.83635272    -0.59900
H1511       H  0.05240582  0.70297043  0.80901790     0.44100
H1512       H  0.11100160  0.69587702  0.95075713     0.44100
C1513       C  0.36203624  0.95071900  0.84662976    -0.05000
C1514       C  0.33727039  0.91538377  0.83168173    -0.32400
C1515       C  0.30065267  0.89826624  0.83060106     0.36800
C1516       C  0.28802624  0.91609795  0.84528167    -0.05300
C1517       C  0.31295567  0.95198206  0.85816563    -0.32300
C1518       C  0.34978173  0.96950428  0.85851964     0.36700
H1519       H  0.34583753  0.90025327  0.82267971     0.17100
O1520       O  0.27686875  0.86335570  0.81728424    -0.59800
H1521       H  0.30338601  0.96589488  0.86953914     0.17100
O1522       O  0.37181655  0.50252941  0.87325909    -0.59900
H1523       H  0.37688012  0.51820789  0.85360043     0.44100
H1524       H  0.26952817  0.84835863  0.83909548     0.44100
C1525       C  0.11714306  0.92515498  0.88134967    -0.05000
C1526       C  0.09030728  0.91382542  0.85871083    -0.32400
C1527       C  0.07425831  0.92900965  0.86415614     0.36800
C1528       C  0.08417643  0.95516218  0.89331931    -0.05300
C1529       C  0.11155379  0.96715444  0.91530678    -0.32300
C1530       C  0.12845859  0.95279517  0.90907833     0.36700
H1531       H  0.08121126  0.89262758  0.83724039     0.17100
O1532       O  0.04762596  0.91687710  0.84212745    -0.59800
H1533       H  0.12025116  0.98811536  0.93694495     0.17100
O1534       O  0.15728610  0.96716027  0.92871276    -0.59900
H1535       H  0.14673327  0.96021249  0.95569787     0.44100
H1536       H  0.06087373  0.92868259  0.81715436     0.44100
C1537       C  0.43014575  0.58290163  0.69866162    -0.05000
C1538       C  0.40811744  0.57630573  0.67215943    -0.32400
C1539       C  0.39115968  0.59068658  0.67811426     0.36800
C1540       C  0.39670298  0.61272104  0.71075919    -0.05300
C1541       C  0.41977975  0.62019426  0.73640620    -0.32300
C1542       C  0.43611904  0.60536857  0.73081715     0.36700
H1543       H  0.40310597  0.55905393  0.64730477     0.17100
O1544       O  0.36751592  0.58114295  0.65320710    -0.59800
H1545       H  0.42530444  0.63780362  0.76106521     0.17100
O1546       O  0.45897588  0.61408654  0.75633665    -0.59900
H1547       H  0.44265869  0.59913313  0.77897506     0.44100
H1548       H  0.38313317  0.59426794  0.62941579     0.44100
C1549       C  0.40742884  0.85358466  0.74973983    -0.05000
C1550       C  0.42717130  0.84657715  0.76352246    -0.32400
C1551       C  0.41230353  0.81112222  0.76704454     0.36800
C1552       C  0.37730111  0.78182121  0.75656354    -0.05300
C1553       C  0.35644861  0.78840878  0.74551367    -0.32300
C1554       C  0.37091658  0.82374550  0.74242232     0.36700
H1555       H  0.45503943  0.86857917  0.76962928     0.17100
O1556       O  0.43348617  0.80541200  0.77729894    -0.59800
H1557       H  0.32924249  0.76595848  0.73784341     0.17100
O1558       O  0.34936653  0.82859440  0.73107571    -0.59900
H1559       H  0.34885920  0.82300203  0.70319681     0.44100
H1560       H  0.43005587  0.80559020  0.80566461     0.44100
C1561       C  0.20223265  0.58509602  0.75364634    -0.05000
C1562       C  0.19671342  0.60919497  0.75430432    -0.32400
C1563       C  0.16317289  0.59706407  0.74728651     0.36800
C1564       C  0.13429461  0.56010119  0.74003760    -0.05300
C1565       C  0.13904760  0.53563128  0.74250242    -0.32300
C1566       C  0.17290744  0.54802362  0.74913123     0.36700
H1567       H  0.21937173  0.63783383  0.75766784     0.17100
O1568       O  0.15911323  0.62161867  0.74684204    -0.59800
H1569       H  0.11726111  0.50714112  0.73689573     0.17100
O1570       O  0.17801575  0.52414674  0.74805460    -0.59900
H1571       H  0.16863578  0.51395501  0.77401491     0.44100
H1572       H  0.17216927  0.63393878  0.72207221     0.44100
C1573       C  0.37024917  0.58696021  0.97367183    -0.05000
C1574       C  0.39536486  0.59654396  0.94121158    -0.32400
C1575       C  0.41217471  0.58224250  0.93365573     0.36800
C1576       C  0.40402680  0.55727300  0.95877754    -0.05300
C1577       C  0.37856629  0.54745081  0.99140943    -0.32300
C1578       C  0.36179852  0.56209938  0.99894245     0.36700
H1579       H  0.40266056  0.61599614  0.92173876     0.17100
O1580       O  0.43680302  0.59332148  0.90152340    -0.59800
H1581       H  0.37169370  0.52847387  0.01128929     0.17100
O1582       O  0.33719396  0.55182880  0.03093282    -0.59900
H1583       H  0.31284788  0.53486168  0.02149305     0.44100
H1584       H  0.46053319  0.61557644  0.90957683     0.44100
C1585       C  0.39465833  0.78126296  0.97894748    -0.05000
C1586       C  0.37314927  0.78653733  0.46361237    -0.32400
C1587       C  0.38818083  0.82086179  0.45447091     0.36800
C1588       C  0.42497315  0.85078026  0.96089286    -0.05300
C1589       C  0.44375023  0.84614167  0.98106370    -0.32300
C1590       C  0.42888483  0.81174138  0.98986834     0.36700
H1591       H  0.34731983  0.76310953  0.45374547     0.17100
O1592       O  0.36912174  0.82363994  0.43398802    -0.59800
H1593       H  0.47048250  0.86916262  0.98939628     0.17100
O1594       O  0.44865473  0.80802685  0.00764165    -0.59900
H1595       H  0.46424007  0.80733889  0.98667928     0.44100
H1596       H  0.35461501  0.82698086  0.45347836     0.44100
C1597       C  0.19980203  0.59506624  0.01401700    -0.05000
C1598       C  0.19051880  0.61683678  0.51874067    -0.32400
C1599       C  0.15461376  0.60132059  0.51657237     0.36800
C1600       C  0.12770324  0.56422849  0.00924095    -0.05300
C1601       C  0.13711682  0.54284197  0.00334402    -0.32300
C1602       C  0.17307716  0.55822757  0.00499294     0.36700
H1603       H  0.21122108  0.64559959  0.52387427     0.17100
O1604       O  0.14664079  0.62317114  0.52145922    -0.59800
H1605       H  0.11725524  0.51477823  0.99481130     0.17100
O1606       O  0.18226530  0.53743967  0.99655453    -0.59900
H1607       H  0.18993432  0.53963223  0.96860932     0.44100
H1608       H  0.14270214  0.62591867  0.54952575     0.44100
C1609       C  0.32814933  0.65169197  0.90610219    -0.05000
C1610       C  0.30582204  0.65483410  0.89075930    -0.32400
C1611       C  0.30779262  0.65797487  0.85082717     0.36800
C1612       C  0.33196863  0.65713723  0.82391836    -0.05300
C1613       C  0.35797859  0.65982172  0.83983979    -0.32300
C1614       C  0.35672091  0.65781555  0.87980136     0.36700
H1615       H  0.28831777  0.65754721  0.90987590     0.17100
O1616       O  0.28868884  0.66557113  0.83868739    -0.59800
H1617       H  0.38141752  0.66634224  0.82178469     0.17100
O1618       O  0.38593522  0.66602572  0.89324887    -0.59900
H1619       H  0.38957375  0.65002130  0.87896793     0.44100
H1620       H  0.26353228  0.64889144  0.85199280     0.44100
C1621       C  0.33493624  0.66104452  0.65595977    -0.05000
C1622       C  0.30821208  0.62933618  0.63569511    -0.32400
C1623       C  0.30715053  0.62863378  0.59586009     0.36800
C1624       C  0.33357450  0.66001073  0.57383003    -0.05300
C1625       C  0.36296192  0.69049906  0.59306249    -0.32300
C1626       C  0.36411236  0.69106644  0.63306551     0.36700
H1627       H  0.28820083  0.60413860  0.65046268     0.17100
O1628       O  0.28122985  0.59632569  0.57818361    -0.59800
H1629       H  0.38635622  0.71373613  0.57694224     0.17100
O1630       O  0.39526842  0.72000080  0.64886330    -0.59900
H1631       H  0.40049635  0.74177266  0.64183952     0.44100
H1632       H  0.25725101  0.58741893  0.59121861     0.44100
C1633       C  0.83121370  0.15720315  0.02913606     0.30500
C1634       C  0.82708155  0.15026847  0.45040896     0.30500
C1635       C  0.83797642  0.13364232  0.00508958    -0.05700
C1636       C  0.79427635  0.14111771  0.01684999    -0.06500
C1637       C  0.85797161  0.19299321  0.00687693    -0.06400
C1638       C  0.83695361  0.13078434  0.46609833    -0.05700
C1639       C  0.79165154  0.13523620  0.47704311    -0.06500
C1640       C  0.85469867  0.18854629  0.46685607    -0.06400
C1641       C  0.84543150  0.11011831  0.45106850    -0.31800
N1642       N  0.85552861  0.10324525  0.47909925     0.14700
C1643       C  0.84848366  0.11531115  0.01197511    -0.31800
H1644       H  0.85534051  0.11466748  0.03899789     0.16700
C1645       C  0.75564589  0.11593431  0.47257710    -0.30700
N1646       N  0.73729528  0.11309005  0.00792408     0.13500
C1647       C  0.76012053  0.12655305  0.03501023    -0.30700
C1648       C  0.86753818  0.22034495  0.45403037    -0.31000
N1649       N  0.87998255  0.24506810  0.98441672     0.14000
H1650       H  0.86687442  0.22509938  0.42543257     0.16600
C1651       C  0.87178672  0.22779906  0.01658307    -0.31000
H1652       H  0.87229335  0.23863198  0.04517769     0.16600
H1653       H  0.75219141  0.12518853  0.06553448     0.16600
H1654       H  0.84500879  0.10120798  0.42154952     0.16700
H1655       H  0.74359366  0.10646930  0.44598940     0.16600
C1656       C  0.83538743  0.16048512  0.20003218     0.30500
C1657       C  0.83329364  0.15694000  0.27889415     0.30500
C1658       C  0.85727415  0.15204108  0.21208213    -0.05700
C1659       C  0.84917222  0.19468778  0.22446988    -0.06500
C1660       C  0.79764953  0.13219920  0.22241975    -0.06400
C1661       C  0.85603093  0.14972919  0.25156885    -0.05700
C1662       C  0.84862362  0.19317557  0.26395313    -0.06500
C1663       C  0.79632809  0.12967368  0.26185161    -0.06400
C1664       C  0.86964371  0.13341723  0.25443816    -0.31800
N1665       N  0.88074866  0.12788285  0.21888647     0.14700
C1666       C  0.87293969  0.13880443  0.19282474    -0.31800
H1667       H  0.87724595  0.13633224  0.16209686     0.16700
C1668       C  0.85964436  0.22550984  0.28023693    -0.30700
N1669       N  0.86590815  0.24586915  0.25225324     0.13500
C1670       C  0.85895226  0.22702960  0.21855063    -0.30700
C1671       C  0.75983257  0.10760836  0.27648358    -0.31000
N1672       N  0.73988420  0.09871126  0.24797900     0.14000
H1673       H  0.74868762  0.10084915  0.30605730     0.16600
C1674       C  0.76264940  0.11417178  0.21543500    -0.31000
H1675       H  0.75457544  0.11517691  0.18955327     0.16600
H1676       H  0.85993299  0.23598160  0.19181622     0.16600
H1677       H  0.86933828  0.12376046  0.28016818     0.16700
H1678       H  0.86142205  0.23299084  0.31033156     0.16600
O1679       O  0.56958291  0.48816177  0.37471444    -0.74800
O1680       O  0.55140792  0.46774301  0.43535122    -0.53700
C1681       C  0.56864494  0.47292764  0.40197614     0.78900
O1682       O  0.56596111  0.12444201  0.42206439    -0.59400
O1683       O  0.52057533  0.10134268  0.38592970    -0.52400
C1684       C  0.55064205  0.12781824  0.39955961     0.70900
O1685       O  0.59464544  0.07378855  0.48225480    -0.74000
O1686       O  0.56578654  0.01604977  0.49547513    -0.54500
C1687       C  0.59331165  0.05025191  0.49580614     0.76900
O1688       O  0.54755742  0.54823565  0.31766571    -0.59100
O1689       O  0.00609452  0.05237112  0.32399873    -0.52200
C1690       C  0.01634965  0.03552780  0.30958407     0.73500
Zr1691     Zr  0.54412391  0.51432358  0.36359124     2.54700
O1692       O  0.60844240  0.06418946  0.35217707    -0.79700
O1693       O  0.03533917  0.47154576  0.30586305    -0.93100
Zr1694     Zr  0.55681067  0.07690695  0.45136959     2.64700
O1695       O  0.62165806  0.12566244  0.43245658    -0.98100
O1696       O  0.56111031  0.11023987  0.51019157    -0.80100
O1697       O  0.55886100  0.03147029  0.42575033    -0.83500
O1698       O  0.54187694  0.05931234  0.38848878    -2.18200
O1699       O  0.89545359  0.43851480  0.36701589    -0.66900
O1700       O  0.92200093  0.49665237  0.36019232    -0.51400
C1701       C  0.89531085  0.46240298  0.35745848     0.71900
O1702       O  0.93388765  0.95109579  0.01248080    -0.59800
O1703       O  0.47336480  0.44644393  0.02034344    -0.51700
C1704       C  0.95775582  0.45703678  0.03393541     0.73700
O1705       O  0.92195184  0.02640925  0.47704407    -0.71200
O1706       O  0.94604805  0.05200506  0.41884525    -0.49800
C1707       C  0.92589316  0.04461999  0.45072140     0.75100
O1708       O  0.92281558  0.39025205  0.43350184    -0.66500
O1709       O  0.97217886  0.41228256  0.46186757    -0.53700
C1710       C  0.94007404  0.38622808  0.45199882     0.73500
Zr1711     Zr  0.93321701  0.43774700  0.40196680     2.77500
O1712       O  0.87054966  0.39353584  0.43179483    -0.97200
O1713       O  0.92478234  0.39963887  0.34638966    -0.78100
Zr1714     Zr  0.95236490  0.00542713  0.48950984     2.70100
O1715       O  0.89720309  0.47672806  0.03641804    -0.79300
O1716       O  0.47687328  0.05182190  0.04171664    -0.98400
Zr1717     Zr  0.51296091  0.48033084  0.46267081     2.21500
Zr1718     Zr  0.98121497  0.03610862  0.38885004     2.11100
O1719       O  0.93248426  0.48418713  0.42818511    -2.47100
O1720       O  0.95189945  0.45902824  0.46254353    -0.79100
O1721       O  0.98114436  0.48954883  0.37207638    -0.71300
O1722       O  0.51230240  0.02647439  0.48978686    -2.32300
O1723       O  0.99235256  0.45636704  0.39814981    -2.28500
O1724       O  0.49782106  0.05760164  0.45282131    -0.73100
H1725       H  0.55978689  0.08091260  0.37384305     0.78900
H1726       H  0.52029006  0.03512854  0.01485990     0.80000
H1727       H  0.90871962  0.47671196  0.42906161     0.82300
H1728       H  0.99146082  0.43667884  0.38933581     0.79900
H1729       H  0.56708497  0.10243049  0.52907091     0.42900
H1730       H  0.48958664  0.07447422  0.02856843     0.41900
H1731       H  0.87695655  0.45786831  0.02105129     0.41500
H1732       H  0.86271802  0.40731284  0.44044987     0.39500
H1733       H  0.94898228  0.41417516  0.33100857     0.42600
H1734       H  0.02016908  0.44701275  0.31576427     0.37400
H1735       H  0.61663324  0.05791172  0.32799699     0.43500
H1736       H  0.62351423  0.12999750  0.40531873     0.39900
H1737       H  0.85611483  0.37800911  0.41037633     0.44800
H1738       H  0.57214354  0.49197445  0.30303544     0.43600
H1739       H  0.62780657  0.14725745  0.44663345     0.43700
H1740       H  0.95823899  0.04829084  0.05711605     0.44100
O1741       O  0.53728389  0.45432256  0.13195362    -0.74800
O1742       O  0.52916796  0.44798330  0.19615551    -0.53700
C1743       C  0.54000892  0.44459637  0.16183129     0.78900
O1744       O  0.57283871  0.11603299  0.14222129    -0.59400
O1745       O  0.52447095  0.09185408  0.11039439    -0.52400
C1746       C  0.55597415  0.11891731  0.12143115     0.70900
O1747       O  0.60512428  0.07013672  0.20656800    -0.74000
O1748       O  0.57159771  0.01687862  0.23664070    -0.54500
C1749       C  0.60174511  0.04870220  0.22763020     0.76900
O1750       O  0.50558563  0.50053246  0.06716834    -0.59100
O1751       O  0.95891202  0.99726657  0.07388519    -0.52200
C1752       C  0.97343916  0.98469011  0.05823202     0.73500
Zr1753     Zr  0.50877736  0.47578382  0.11643646     2.54700
O1754       O  0.55320143  0.98571618  0.06385953    -0.79700
O1755       O  0.96901874  0.41646172  0.08580508    -0.93100
Zr1756     Zr  0.56764446  0.07039089  0.17031751     2.64700
O1757       O  0.61390010  0.08478125  0.11784970    -0.98100
O1758       O  0.61375811  0.12962094  0.19841730    -0.80100
O1759       O  0.54797650  0.01170418  0.16526349    -0.83500
O1760       O  0.53159176  0.03698663  0.11994444    -2.18200
O1761       O  0.88328861  0.44102991  0.14566742    -0.66900
O1762       O  0.91566548  0.49583527  0.11953910    -0.51400
C1763       C  0.88617357  0.46296861  0.12616029     0.71900
O1764       O  0.96365222  0.99113090  0.28015373    -0.59800
O1765       O  0.49915635  0.48215536  0.28946191    -0.51700
C1766       C  0.98426844  0.49630748  0.29698671     0.73700
O1767       O  0.95137088  0.05810703  0.22351887    -0.71200
O1768       O  0.95429127  0.05892223  0.15896332    -0.49800
C1769       C  0.94665869  0.06567700  0.19334603     0.75100
O1770       O  0.90682537  0.39376848  0.21960951    -0.66500
O1771       O  0.95907825  0.41466328  0.24024137    -0.53700
C1772       C  0.92486180  0.38942258  0.23603334     0.73500
Zr1773     Zr  0.91894859  0.44016372  0.18402899     2.77500
O1774       O  0.86736966  0.42028572  0.23148070    -0.97200
O1775       O  0.88264671  0.38500386  0.14542434    -0.78100
Zr1776     Zr  0.97853278  0.03508192  0.23943085     2.70100
O1777       O  0.94501012  0.53976593  0.29672559    -0.79300
O1778       O  0.53004009  0.09672081  0.26899409    -0.98400
Zr1779     Zr  0.50715082  0.47828783  0.22157965     2.21500
Zr1780     Zr  0.97683566  0.02881340  0.13381596     2.11100
O1781       O  0.93889379  0.49941690  0.19111219    -2.47100
O1782       O  0.95537834  0.47509913  0.23334595    -0.79100
O1783       O  0.95870763  0.47191969  0.13002003    -0.71300
O1784       O  0.53179457  0.04133683  0.22785331    -2.32300
O1785       O  0.96978646  0.44297852  0.16981034    -2.28500
O1786       O  0.51709630  0.06754669  0.18467234    -0.73100
H1787       H  0.54740189  0.05197351  0.09803054     0.78900
H1788       H  0.54862801  0.05565950  0.24670660     0.80000
H1789       H  0.91773396  0.49720669  0.19519276     0.82300
H1790       H  0.96213544  0.41932713  0.16725380     0.79900
H1791       H  0.60496619  0.12720094  0.22604815     0.42900
H1792       H  0.54364256  0.11321110  0.24713995     0.41900
H1793       H  0.91885347  0.51996517  0.29340637     0.41500
H1794       H  0.87862243  0.43434879  0.25495071     0.39500
H1795       H  0.85809258  0.36957560  0.16009413     0.42600
H1796       H  0.94437555  0.40539458  0.09868293     0.37400
H1797       H  0.57703436  0.00230474  0.07430153     0.43500
H1798       H  0.63725958  0.10660135  0.12692564     0.39900
H1799       H  0.85768372  0.43035886  0.22323920     0.45800
H1800       H  0.46869832  0.40116225  0.09851850     0.43600
H1801       H  0.61466658  0.06547501  0.11779018     0.43700
H1802       H  0.01602074  0.10315866  0.27894296     0.44100
C1803       C  0.65644353  0.35614796  0.32719834     0.30500
C1804       C  0.65749560  0.35953598  0.40633466     0.30500
C1805       C  0.64865081  0.37861171  0.35144296    -0.05700
C1806       C  0.62928257  0.31966219  0.34788087    -0.06500
C1807       C  0.69270578  0.37186560  0.34081269    -0.06400
C1808       C  0.64922863  0.38036386  0.39099912    -0.05700
C1809       C  0.62984356  0.32182471  0.38813608    -0.06500
C1810       C  0.69330648  0.37361372  0.38072364    -0.06400
C1811       C  0.63933962  0.39971771  0.40680369    -0.31800
N1812       N  0.63294547  0.40984193  0.37815720     0.14700
C1813       C  0.63844710  0.39695710  0.34435674    -0.31800
H1814       H  0.63440611  0.39994062  0.31669824     0.16700
C1815       C  0.61971467  0.29035971  0.39814986    -0.30700
N1816       N  0.61214050  0.26881860  0.36708243     0.13500
C1817       C  0.61907051  0.28657239  0.33614883    -0.30700
C1818       C  0.72800568  0.38880033  0.38617144    -0.31000
N1819       N  0.74817474  0.39652677  0.35153108     0.14000
H1820       H  0.73811136  0.39393218  0.41323638     0.16600
C1821       C  0.72689616  0.38582920  0.32367793    -0.31000
H1822       H  0.73593424  0.38861298  0.29333846     0.16600
H1823       H  0.62060959  0.27776483  0.30696573     0.16600
H1824       H  0.63528504  0.40444024  0.43704123     0.16700
H1825       H  0.62130978  0.28478435  0.42572324     0.16600
C1826       C  0.65377762  0.35385690  0.07737522     0.30500
C1827       C  0.65354484  0.35353573  0.15621825     0.30500
C1828       C  0.63029589  0.35994188  0.10388417    -0.05700
C1829       C  0.64028188  0.31870944  0.09339425    -0.06500
C1830       C  0.69115170  0.38229041  0.09330332    -0.06400
C1831       C  0.63015735  0.35978018  0.14338171    -0.05700
C1832       C  0.64064267  0.31886481  0.13305383    -0.06500
C1833       C  0.69084711  0.38226149  0.13324363    -0.06400
C1834       C  0.61494591  0.37388542  0.16092480    -0.31800
N1835       N  0.60553123  0.38217222  0.13361627     0.14700
C1836       C  0.61480597  0.37372363  0.09875958    -0.31800
H1837       H  0.61187045  0.37846657  0.07148399     0.16700
C1838       C  0.62947941  0.28624475  0.14095819    -0.30700
N1839       N  0.62105989  0.26582961  0.10827563     0.13500
C1840       C  0.62781922  0.28536720  0.07902113    -0.30700
C1841       C  0.72568288  0.39853188  0.13928752    -0.31000
N1842       N  0.74709809  0.40945806  0.10556316     0.14000
H1843       H  0.73418237  0.39890157  0.16560851     0.16600
C1844       C  0.72626334  0.39807638  0.07725793    -0.31000
H1845       H  0.73522853  0.39795276  0.04726330     0.16600
H1846       H  0.62461831  0.27618152  0.04946442     0.16600
H1847       H  0.61320970  0.38003214  0.19118437     0.16700
H1848       H  0.62763995  0.27777993  0.16849878     0.16600
C1849       C  0.65302441  0.35423789  0.20094768    -0.05000
C1850       C  0.68054385  0.38585609  0.22081181    -0.32400
C1851       C  0.68181811  0.38675408  0.26070290     0.36800
C1852       C  0.65509484  0.35562911  0.28301142    -0.05300
C1853       C  0.62514299  0.32543217  0.26411328    -0.32300
C1854       C  0.62364998  0.32472166  0.22421608     0.36700
H1855       H  0.70095744  0.41083528  0.20574244     0.17100
O1856       O  0.70824182  0.41898226  0.27813259    -0.59800
H1857       H  0.60157329  0.30247561  0.28045573     0.17100
O1858       O  0.59209019  0.29610232  0.20878676    -0.59900
H1859       H  0.58587271  0.27400511  0.21652201     0.44100
H1860       H  0.73198196  0.42732333  0.26500254     0.44100
C1861       C  0.65352744  0.35576243  0.03351896    -0.05000
C1862       C  0.68409379  0.38830730  0.51177004    -0.32400
C1863       C  0.68464330  0.39020211  0.47184716     0.36800
C1864       C  0.65609011  0.36032895  0.45137402    -0.05300
C1865       C  0.62480798  0.33161869  0.47424684    -0.32300
C1866       C  0.62433315  0.32956926  0.51397831     0.36700
H1867       H  0.70387328  0.41143516  0.02678800     0.17100
O1868       O  0.71194470  0.42227688  0.45363401    -0.59800
H1869       H  0.59983175  0.31044072  0.46158749     0.17100
O1870       O  0.59257407  0.30151181  0.53426162    -0.59900
H1871       H  0.58617279  0.27919482  0.52183027     0.44100
H1872       H  0.73532230  0.43058250  0.45978394     0.44100
C1873       C  0.57400983  0.15647950  0.11197116    -0.05000
C1874       C  0.60908285  0.18538217  0.12305398    -0.32400
C1875       C  0.62511714  0.22119698  0.12050706     0.36800
C1876       C  0.60674011  0.22933616  0.10608936    -0.05300
C1877       C  0.57257669  0.20095704  0.09309702    -0.32300
C1878       C  0.55600612  0.16473186  0.09616956     0.36700
H1879       H  0.62392026  0.18038312  0.13520065     0.17100
O1880       O  0.65846294  0.24822582  0.13343946    -0.59800
H1881       H  0.55789818  0.20686240  0.08240025     0.17100
O1882       O  0.52129203  0.13782018  0.08624562    -0.59900
H1883       H  0.52379450  0.13807264  0.05793519     0.44100
H1884       H  0.67661789  0.25455141  0.11102245     0.44100
C1885       C  0.85237307  0.44941382  0.11222292    -0.05000
C1886       C  0.84744067  0.47343650  0.10788534    -0.32400
C1887       C  0.81316913  0.46040080  0.10212514     0.36800
C1888       C  0.78350143  0.42313162  0.10099954    -0.05300
C1889       C  0.78903474  0.39924001  0.10160060    -0.32300
C1890       C  0.82329444  0.41209058  0.10672811     0.36700
H1891       H  0.86956630  0.50220196  0.11096536     0.17100
O1892       O  0.80821334  0.48409108  0.10039035    -0.59800
H1893       H  0.76620049  0.37047390  0.10003484     0.17100
O1894       O  0.82800197  0.38796772  0.10665871    -0.59900
H1895       H  0.81612519  0.37620559  0.13182286     0.44100
H1896       H  0.81395608  0.48998070  0.07295423     0.44100
C1897       C  0.55731602  0.42899505  0.15578087    -0.05000
C1898       C  0.58364699  0.43974475  0.12414851    -0.32400
C1899       C  0.59991724  0.42485771  0.11657772     0.36800
C1900       C  0.58981240  0.39853985  0.14085115    -0.05300
C1901       C  0.56392982  0.38825532  0.17286249    -0.32300
C1902       C  0.54782905  0.40333346  0.18056546     0.36700
H1903       H  0.59198106  0.46009960  0.10527462     0.17100
O1904       O  0.62689060  0.43751453  0.08653849    -0.59800
H1905       H  0.55566355  0.36789893  0.19163929     0.17100
O1906       O  0.52162789  0.39149483  0.21128763    -0.59900
H1907       H  0.53530883  0.40557705  0.23363955     0.44100
H1908       H  0.61436205  0.42856463  0.06312073     0.44100
C1909       C  0.60129376  0.23418866  0.36825985    -0.05000
C1910       C  0.61766298  0.22964471  0.39216198    -0.32400
C1911       C  0.60173634  0.19544067  0.40252882     0.36800
C1912       C  0.56920255  0.16461548  0.38790356    -0.05300
C1913       C  0.55436243  0.16929962  0.36160455    -0.32300
C1914       C  0.57020288  0.20378907  0.35182960     0.36700
H1915       H  0.64193656  0.25296108  0.40464599     0.17100
O1916       O  0.61779705  0.19278730  0.42789374    -0.59800
H1917       H  0.52968856  0.14626418  0.34948078     0.17100
O1918       O  0.55324841  0.20751329  0.32902964    -0.59900
H1919       H  0.56370299  0.20768651  0.30251125     0.44100
H1920       H  0.60785854  0.19512406  0.45361214     0.44100
C1921       C  0.86027785  0.44907066  0.34686196    -0.05000
C1922       C  0.83522343  0.41377711  0.33192211    -0.32400
C1923       C  0.79865639  0.39698002  0.33117866     0.36800
C1924       C  0.78645633  0.41518241  0.34595133    -0.05300
C1925       C  0.81170967  0.45108446  0.35860525    -0.32300
C1926       C  0.84846932  0.46828061  0.35868682     0.36700
H1927       H  0.84354225  0.39846034  0.32265550     0.17100
O1928       O  0.77452355  0.36202578  0.31810308    -0.59800
H1929       H  0.80246528  0.46529619  0.36993749     0.17100
O1930       O  0.87385429  0.00480783  0.37356110    -0.59900
H1931       H  0.88418646  0.02071898  0.35159365     0.44100
H1932       H  0.76518143  0.34708817  0.34073438     0.44100
C1933       C  0.61860292  0.42747153  0.38297573    -0.05000
C1934       C  0.59129453  0.41579632  0.36093565    -0.32400
C1935       C  0.57587281  0.43149112  0.36603158     0.36800
C1936       C  0.58727084  0.45889396  0.39388999    -0.05300
C1937       C  0.61503840  0.47122223  0.41541734    -0.32300
C1938       C  0.63090626  0.45585151  0.40998599     0.36700
H1939       H  0.58122573  0.39378747  0.34033315     0.17100
O1940       O  0.54828313  0.41855757  0.34510737    -0.59800
H1941       H  0.62453905  0.49289217  0.43628251     0.17100
O1942       O  0.65933631  0.46961043  0.42996780    -0.59900
H1943       H  0.64837572  0.46231050  0.45680609     0.44100
H1944       H  0.56075974  0.43183859  0.32082692     0.44100
C1945       C  0.93087186  0.08282462  0.19888837    -0.05000
C1946       C  0.90552687  0.07297362  0.17495531    -0.32400
C1947       C  0.88889833  0.08763629  0.18095002     0.36800
C1948       C  0.89789798  0.11290187  0.21105560    -0.05300
C1949       C  0.92380161  0.12321924  0.23441642    -0.32300
C1950       C  0.94004538  0.10829062  0.22874695     0.36700
H1951       H  0.89777208  0.05305019  0.15222503     0.17100
O1952       O  0.86228323  0.07541823  0.15886592    -0.59800
H1953       H  0.93150999  0.14306955  0.25723244     0.17100
O1954       O  0.96580099  0.11969674  0.25173374    -0.59900
H1955       H  0.95178161  0.10685127  0.27607630     0.44100
H1956       H  0.87535191  0.08601538  0.13337899     0.44100
C1957       C  0.90557127  0.35210434  0.24800991    -0.05000
C1958       C  0.92355556  0.34586839  0.26717527    -0.32400
C1959       C  0.90925116  0.31068243  0.27164207     0.36800
C1960       C  0.87674739  0.28097818  0.25639425    -0.05300
C1961       C  0.85727120  0.28684285  0.24022233    -0.32300
C1962       C  0.87106840  0.32174036  0.23617220     0.36700
H1963       H  0.94975849  0.36835667  0.27705720     0.17100
O1964       O  0.92897300  0.30587369  0.28764708    -0.59800
H1965       H  0.83188522  0.26414681  0.22897198     0.17100
O1966       O  0.85119969  0.32564488  0.21887854    -0.59900
H1967       H  0.85584580  0.32230747  0.19108211     0.44100
H1968       H  0.92452655  0.30861912  0.31563652     0.44100
C1969       C  0.70358874  0.08554344  0.25263137    -0.05000
C1970       C  0.69895136  0.11016514  0.25190102    -0.32400
C1971       C  0.66531171  0.09840933  0.24598537     0.36800
C1972       C  0.63544275  0.06130502  0.24097734    -0.05300
C1973       C  0.63946318  0.03646807  0.24496704    -0.32300
C1974       C  0.67341268  0.04848263  0.25065568     0.36700
H1975       H  0.72225195  0.13879672  0.25350268     0.17100
O1976       O  0.66214899  0.12347692  0.24432473    -0.59800
H1977       H  0.61697368  0.00784400  0.24117019     0.17100
O1978       O  0.67764804  0.02407365  0.25097461    -0.59900
H1979       H  0.67201391  0.01759163  0.27817971     0.44100
H1980       H  0.67391105  0.13401229  0.21858460     0.44100
C1981       C  0.87227405  0.08776278  0.47251465    -0.05000
C1982       C  0.89479622  0.09483819  0.43827546    -0.32400
C1983       C  0.91189958  0.08082798  0.43069701     0.36800
C1984       C  0.90671110  0.05876816  0.45763437    -0.05300
C1985       C  0.88402228  0.05160027  0.49204562    -0.32300
C1986       C  0.86690159  0.06583252  0.49954143     0.36700
H1987       H  0.89988988  0.11209635  0.41733031     0.17100
O1988       O  0.93365960  0.08909909  0.39664515    -0.59800
H1989       H  0.87951235  0.03494842  0.51337794     0.17100
O1990       O  0.84478860  0.05784817  0.53320212    -0.59900
H1991       H  0.81975998  0.03663767  0.52707009     0.44100
H1992       H  0.95805100  0.11242480  0.40152733     0.44100
C1993       C  0.89034551  0.27922510  0.48090677    -0.05000
C1994       C  0.87378013  0.28502632  0.96244529    -0.32400
C1995       C  0.88847577  0.31937829  0.95385037     0.36800
C1996       C  0.92182840  0.34916902  0.46289409    -0.05300
C1997       C  0.93859914  0.34416843  0.48599913    -0.32300
C1998       C  0.92307724  0.30954718  0.49497092     0.36700
H1999       H  0.84769156  0.26160335  0.95306894     0.17100
O2000       O  0.86895484  0.32212394  0.93413950    -0.59800
H2001       H  0.96429614  0.36708256  0.49652357     0.17100
O2002       O  0.94086921  0.30552430  0.51603532    -0.59900
H2003       H  0.95970769  0.30783739  0.49750747     0.44100
H2004       H  0.85051346  0.31961351  0.95364628     0.44100
C2005       C  0.69909549  0.09324028  0.51369927    -0.05000
C2006       C  0.68974336  0.11677131  0.02248718    -0.32400
C2007       C  0.65389554  0.10159641  0.02058215     0.36800
C2008       C  0.62743085  0.06375725  0.50910441    -0.05300
C2009       C  0.63582914  0.04156507  0.50456824    -0.32300
C2010       C  0.67157796  0.05626566  0.50591891     0.36700
H2011       H  0.71057881  0.14543636  0.02805133     0.17100
O2012       O  0.64598995  0.12351038  0.02653466    -0.59800
H2013       H  0.61532100  0.01329273  0.49717280     0.17100
O2014       O  0.67981495  0.03467894  0.49804026    -0.59900
H2015       H  0.68611723  0.03542349  0.46989606     0.44100
H2016       H  0.64013301  0.12414435  0.05460197     0.44100
C2017       C  0.82762030  0.15011472  0.40577404    -0.05000
C2018       C  0.80479031  0.15243749  0.39024659    -0.32400
C2019       C  0.80690636  0.15567123  0.35031231     0.36800
C2020       C  0.83192581  0.15594899  0.32356129    -0.05300
C2021       C  0.85807750  0.15904460  0.33969699    -0.32300
C2022       C  0.85648759  0.15665419  0.37961143     0.36700
H2023       H  0.78671094  0.15443562  0.40924156     0.17100
O2024       O  0.78700119  0.16226157  0.33808319    -0.59800
H2025       H  0.88185899  0.16614567  0.32186817     0.17100
O2026       O  0.88558929  0.16469654  0.39312044    -0.59900
H2027       H  0.88920046  0.14869449  0.37875205     0.44100
H2028       H  0.76186407  0.14507642  0.35130826     0.44100
C2029       C  0.83580186  0.16037409  0.15537555    -0.05000
C2030       C  0.80911624  0.12830357  0.13540363    -0.32400
C2031       C  0.80750049  0.12713874  0.09561196     0.36800
C2032       C  0.83335051  0.15837179  0.07323653    -0.05300
C2033       C  0.86282434  0.18918359  0.09211409    -0.32300
C2034       C  0.86447527  0.19026518  0.13209800     0.36700
H2035       H  0.78948225  0.10320442  0.15041366     0.17100
O2036       O  0.78165078  0.09454429  0.07833034    -0.59800
H2037       H  0.88598501  0.21231617  0.07573740     0.17100
O2038       O  0.89570853  0.21958769  0.14745621    -0.59900
H2039       H  0.90058083  0.24109735  0.14016902     0.44100
H2040       H  0.75766359  0.08606527  0.09071547     0.44100
C2041       C  0.83140178  0.15712943  0.52917780     0.30500
C2042       C  0.82717102  0.15141581  0.95043118     0.30500
C2043       C  0.83984286  0.13479963  0.50541235    -0.05700
C2044       C  0.79395924  0.13933363  0.51673735    -0.06500
C2045       C  0.85688079  0.19263614  0.50669599    -0.06400
C2046       C  0.83539442  0.13028450  0.96576718    -0.05700
C2047       C  0.79208401  0.13765290  0.97716580    -0.06500
C2048       C  0.85593169  0.18937196  0.96701573    -0.06400
C2049       C  0.84300009  0.10888582  0.95041020    -0.31800
N2050       N  0.85178735  0.10054721  0.97841563     0.14700
C2051       C  0.85196608  0.11803909  0.51248905    -0.31800
H2052       H  0.85945008  0.11833224  0.53953392     0.16700
C2053       C  0.75620607  0.11925088  0.97282553    -0.30700
N2054       N  0.73672818  0.10993172  0.50759453     0.13500
C2055       C  0.75968338  0.12438405  0.53476886    -0.30700
C2056       C  0.86971808  0.22167760  0.95448329    -0.31000
N2057       N  0.87742211  0.24383861  0.48382878     0.14000
H2058       H  0.86909487  0.22679518  0.92605931     0.16600
C2059       C  0.86987311  0.22711141  0.51616015    -0.31000
H2060       H  0.87047014  0.23812428  0.54466937     0.16600
H2061       H  0.75185828  0.12378658  0.56524570     0.16600
H2062       H  0.84323645  0.10074208  0.92067299     0.16700
H2063       H  0.74415099  0.11010228  0.94626536     0.16600
C2064       C  0.83565410  0.16151625  0.70011493     0.30500
C2065       C  0.83355494  0.15776252  0.77887745     0.30500
C2066       C  0.85749160  0.15289537  0.71206720    -0.05700
C2067       C  0.84957767  0.19572321  0.72463855    -0.06500
C2068       C  0.79775077  0.13323130  0.72255554    -0.06400
C2069       C  0.85609661  0.15033599  0.75148424    -0.05700
C2070       C  0.84912595  0.19404054  0.76404142    -0.06500
C2071       C  0.79652500  0.13078273  0.76197093    -0.06400
C2072       C  0.87011999  0.13438169  0.75423707    -0.31800
N2073       N  0.88186868  0.12947448  0.71869201     0.14700
C2074       C  0.87403924  0.14052925  0.69274204    -0.31800
H2075       H  0.87899665  0.13885805  0.66200198     0.16700
C2076       C  0.86076212  0.22645336  0.78057460    -0.30700
N2077       N  0.86715287  0.24702910  0.75286729     0.13500
C2078       C  0.85968504  0.22831074  0.71907059    -0.30700
C2079       C  0.76006744  0.10869008  0.77677031    -0.31000
N2080       N  0.73983198  0.09924825  0.74831361     0.14000
H2081       H  0.74913022  0.10210632  0.80642386     0.16600
C2082       C  0.76249427  0.11462451  0.71561255    -0.31000
H2083       H  0.75414191  0.11495373  0.68955587     0.16600
H2084       H  0.86066017  0.23760097  0.69260860     0.16600
H2085       H  0.86959397  0.12446966  0.77988645     0.16700
H2086       H  0.86309670  0.23398427  0.81063230     0.16600
O2087       O  0.56628719  0.48473534  0.87502743    -0.74800
O2088       O  0.54906347  0.46549225  0.93611840    -0.53700
C2089       C  0.56569180  0.46986581  0.90249274     0.78900
O2090       O  0.56429052  0.12360564  0.92233635    -0.59400
O2091       O  0.51934298  0.10020181  0.88544927    -0.52400
C2092       C  0.54912364  0.12678652  0.89942459     0.70900
O2093       O  0.59406398  0.07416601  0.98250586    -0.74000
O2094       O  0.56547666  0.01654774  0.99590696    -0.54500
C2095       C  0.59288880  0.05082933  0.99628949     0.76900
O2096       O  0.54508205  0.54529719  0.81716548    -0.59100
O2097       O  0.00628833  0.05346408  0.82575568    -0.52200
C2098       C  0.01667160  0.03672953  0.81130182     0.73500
Zr2099     Zr  0.54143444  0.51165822  0.86373540     2.54700
O2100       O  0.60727206  0.05952603  0.85007784    -0.79700
O2101       O  0.04813695  0.48429309  0.80620915    -0.93100
Zr2102     Zr  0.55572200  0.07638997  0.95144872     2.64700
O2103       O  0.62034413  0.12598428  0.93240925    -0.98100
O2104       O  0.56082141  0.10951538  0.01075792    -0.80100
O2105       O  0.55747410  0.03068979  0.92629574    -0.83500
O2106       O  0.54100223  0.05848031  0.88841674    -2.18200
O2107       O  0.89637814  0.43967719  0.86944708    -0.66900
O2108       O  0.92269288  0.49767624  0.86182979    -0.51400
C2109       C  0.89606506  0.46331823  0.85943889     0.71900
O2110       O  0.93592055  0.95191106  0.51233728    -0.59800
O2111       O  0.47567760  0.44750267  0.51959310    -0.51700
C2112       C  0.95653157  0.45512908  0.53217220     0.73700
O2113       O  0.92001203  0.02521357  0.97781699    -0.71200
O2114       O  0.94648845  0.05337764  0.92104313    -0.49800
C2115       C  0.92492478  0.04453585  0.95210225     0.75100
O2116       O  0.92439823  0.39081515  0.93332887    -0.66500
O2117       O  0.97244691  0.41376512  0.96480364    -0.53700
C2118       C  0.94113691  0.38727579  0.95338514     0.73500
Zr2119     Zr  0.93485750  0.43872555  0.90289798     2.77500
O2120       O  0.87159002  0.38893837  0.92644773    -0.97200
O2121       O  0.93195950  0.40621525  0.84397783    -0.78100
Zr2122     Zr  0.95196346  0.00586325  0.99072266     2.70100
O2123       O  0.89638905  0.47585145  0.53425004    -0.79300
O2124       O  0.47805667  0.05192933  0.54177177    -0.98400
Zr2125     Zr  0.51088337  0.47866775  0.96301638     2.21500
Zr2126     Zr  0.98104650  0.03682063  0.89044440     2.11100
O2127       O  0.93359134  0.48490116  0.92927531    -2.47100
O2128       O  0.95242455  0.45991229  0.96396599    -0.79100
O2129       O  0.98180369  0.49003656  0.86784555    -0.71300
O2130       O  0.51122035  0.02624046  0.99034404    -2.32300
O2131       O  0.99510058  0.45975967  0.89970021    -2.28500
O2132       O  0.49666410  0.05690417  0.95289814    -0.73100
H2133       H  0.55881686  0.07990303  0.87346762     0.78900
H2134       H  0.52137508  0.03522298  0.51430592     0.80000
H2135       H  0.90966172  0.47704646  0.93017687     0.82300
H2136       H  0.99484847  0.44050484  0.89063988     0.79900
H2137       H  0.57174859  0.13347742  0.00257950     0.42900
H2138       H  0.48837752  0.07414607  0.52935363     0.41900
H2139       H  0.87685673  0.46544343  0.51799738     0.41500
H2140       H  0.86091333  0.40009239  0.93517747     0.39500
H2141       H  0.93062453  0.41728271  0.82401567     0.42600
H2142       H  0.03310928  0.45879476  0.81275845     0.37400
H2143       H  0.61128974  0.08128595  0.84624250     0.43500
H2144       H  0.62199496  0.13089117  0.90558702     0.39900
H2145       H  0.85984540  0.37458836  0.90326666     0.44800
H2146       H  0.56707376  0.48691618  0.80289988     0.43600
H2147       H  0.62629542  0.14718731  0.94740629     0.43700
H2148       H  0.95619396  0.04722566  0.55528093     0.44100
O2149       O  0.54046287  0.45636688  0.63241296    -0.74800
O2150       O  0.53180303  0.44993172  0.69663870    -0.53700
C2151       C  0.54313563  0.44677299  0.66246134     0.78900
O2152       O  0.57370161  0.11589365  0.64091130    -0.59400
O2153       O  0.52501908  0.09184593  0.60963287    -0.52400
C2154       C  0.55683676  0.11884876  0.62012864     0.70900
O2155       O  0.60457559  0.06959377  0.70806084    -0.74000
O2156       O  0.57031887  0.01583444  0.73766593    -0.54500
C2157       C  0.60067661  0.04777189  0.72913009     0.76900
O2158       O  0.50728342  0.50136271  0.56694604    -0.59100
O2159       O  0.96030080  0.99793256  0.57449841    -0.52200
C2160       C  0.97531905  0.98589718  0.55857745     0.73500
Zr2161     Zr  0.51158259  0.47733172  0.61627098     2.54700
O2162       O  0.55599655  0.98673862  0.56576748    -0.79700
O2163       O  0.97232138  0.41822649  0.58252532    -0.93100
Zr2164     Zr  0.56749785  0.07022516  0.67106583     2.64700
O2165       O  0.61619171  0.08773028  0.62035735    -0.98100
O2166       O  0.60872810  0.12771459  0.70467744    -0.80100
O2167       O  0.54780900  0.01147142  0.66609153    -0.83500
O2168       O  0.53213704  0.03682891  0.61994085    -2.18200
O2169       O  0.88455767  0.44145341  0.64726952    -0.66900
O2170       O  0.91677755  0.49571966  0.61984577    -0.51400
C2171       C  0.88740345  0.46302325  0.62711039     0.71900
O2172       O  0.96381201  0.99208280  0.78207240    -0.59800
O2173       O  0.49557270  0.47945004  0.78956485    -0.51700
C2174       C  0.98977342  0.50017473  0.79599761     0.73700
O2175       O  0.95224918  0.05894974  0.72379908    -0.71200
O2176       O  0.95532087  0.05982569  0.65925119    -0.49800
C2177       C  0.94762415  0.06663046  0.69360080     0.75100
O2178       O  0.90951033  0.39452950  0.71951651    -0.66500
O2179       O  0.96163664  0.41649867  0.74154297    -0.53700
C2180       C  0.92763676  0.39082612  0.73677431     0.73500
Zr2181     Zr  0.92059659  0.44113996  0.68562038     2.77500
O2182       O  0.87388159  0.42622272  0.73786179    -0.97200
O2183       O  0.87931754  0.38468969  0.65054033    -0.78100
Zr2184     Zr  0.97879853  0.03531832  0.74027603     2.70100
O2185       O  0.94596500  0.53975947  0.79604850    -0.79300
O2186       O  0.52908522  0.09561898  0.76777233    -0.98400
Zr2187     Zr  0.50796588  0.47871754  0.72174155     2.21500
Zr2188     Zr  0.97802631  0.02970449  0.63449375     2.11100
O2189       O  0.94064206  0.50027231  0.69159180    -2.47100
O2190       O  0.95765005  0.47632732  0.73429113    -0.79100
O2191       O  0.95947348  0.47173964  0.63048420    -0.71300
O2192       O  0.53052694  0.03999176  0.72776805    -2.32300
O2193       O  0.97135972  0.44398607  0.67011498    -2.28500
O2194       O  0.51659739  0.06677814  0.68409322    -0.73100
H2195       H  0.54777083  0.05139966  0.59775730     0.78900
H2196       H  0.54700092  0.05406256  0.74696005     0.80000
H2197       H  0.91955517  0.49817761  0.69576916     0.82300
H2198       H  0.96364313  0.42030577  0.66754673     0.79900
H2199       H  0.59998297  0.12217046  0.73214538     0.42900
H2200       H  0.54232160  0.11206918  0.74589777     0.41900
H2201       H  0.92010455  0.52148522  0.79095924     0.41500
H2202       H  0.87096502  0.44380150  0.73637832     0.39500
H2203       H  0.85560931  0.37104304  0.66685278     0.42600
H2204       H  0.94711829  0.40722601  0.59313369     0.37400
H2205       H  0.57929729  0.01024499  0.57262983     0.43500
H2206       H  0.63895599  0.10589427  0.63258021     0.39900
H2207       H  0.85095494  0.40290982  0.72994589     0.45800
H2208       H  0.47329020  0.40319391  0.59744973     0.43600
H2209       H  0.61403039  0.06640936  0.61590639     0.43700
H2210       H  0.01775819  0.10477222  0.77686174     0.44100
C2211       C  0.65680797  0.35559193  0.82744523     0.30500
C2212       C  0.65691891  0.35865657  0.90672576     0.30500
C2213       C  0.64902081  0.37820431  0.85141668    -0.05700
C2214       C  0.62908758  0.31909134  0.84807089    -0.06500
C2215       C  0.69277857  0.37093785  0.84171111    -0.06400
C2216       C  0.64908662  0.37970941  0.89106400    -0.05700
C2217       C  0.62932855  0.32108830  0.88834381    -0.06500
C2218       C  0.69288691  0.37263885  0.88169775    -0.06400
C2219       C  0.63829876  0.39829006  0.90676104    -0.31800
N2220       N  0.63190813  0.40831521  0.87801675     0.14700
C2221       C  0.63820221  0.39600051  0.84420903    -0.31800
H2222       H  0.63411517  0.39882114  0.81649130     0.16700
C2223       C  0.61839818  0.28929285  0.89847858    -0.30700
N2224       N  0.61029790  0.26764065  0.86744835     0.13500
C2225       C  0.61785389  0.28560912  0.83641677    -0.30700
C2226       C  0.72747343  0.38795191  0.88786730    -0.31000
N2227       N  0.74808628  0.39569223  0.85355580     0.14000
H2228       H  0.73722069  0.39318712  0.91519691     0.16600
C2229       C  0.72714576  0.38481605  0.82524522    -0.31000
H2230       H  0.73656865  0.38745777  0.79501971     0.16600
H2231       H  0.61905248  0.27654931  0.80727062     0.16600
H2232       H  0.63345586  0.40237434  0.93700087     0.16700
H2233       H  0.61982726  0.28346038  0.92599573     0.16600
C2234       C  0.65562585  0.35473213  0.57713016     0.30500
C2235       C  0.65515202  0.35351086  0.65597058     0.30500
C2236       C  0.63226831  0.36080343  0.60400851    -0.05700
C2237       C  0.64189932  0.31927657  0.59274821    -0.06500
C2238       C  0.69299948  0.38280279  0.59315697    -0.06400
C2239       C  0.63205961  0.36026940  0.64342854    -0.05700
C2240       C  0.64210687  0.31897035  0.63239232    -0.06500
C2241       C  0.69257488  0.38217152  0.63310661    -0.06400
C2242       C  0.61656658  0.37403902  0.66135115    -0.31800
N2243       N  0.60711427  0.38255222  0.63430837     0.14700
C2244       C  0.61644615  0.37433748  0.59929182    -0.31800
H2245       H  0.61338083  0.37912515  0.57213342     0.16700
C2246       C  0.63105083  0.28626386  0.63980148    -0.30700
N2247       N  0.62285760  0.26621373  0.60683712     0.13500
C2248       C  0.62959322  0.28607591  0.57793253    -0.30700
C2249       C  0.72702290  0.39702070  0.63883301    -0.31000
N2250       N  0.74839162  0.40798946  0.60512774     0.14000
H2251       H  0.73526171  0.39661251  0.66492792     0.16600
C2252       C  0.72790848  0.39796818  0.57695575    -0.31000
H2253       H  0.73693529  0.39847394  0.54685471     0.16600
H2254       H  0.62644851  0.27720630  0.54827972     0.16600
H2255       H  0.61476393  0.37988816  0.69168903     0.16700
H2256       H  0.62909940  0.27750758  0.66720485     0.16600
C2257       C  0.65449161  0.35391590  0.70076323    -0.05000
C2258       C  0.68257141  0.38508330  0.72062756    -0.32400
C2259       C  0.68365223  0.38585215  0.76055806     0.36800
C2260       C  0.65592979  0.35512820  0.78309326    -0.05300
C2261       C  0.62559978  0.32547229  0.76416170    -0.32300
C2262       C  0.62456042  0.32474577  0.72409819     0.36700
H2263       H  0.70368959  0.40991759  0.70553374     0.17100
O2264       O  0.71107462  0.41766975  0.77774740    -0.59800
H2265       H  0.60155092  0.30289545  0.78054267     0.17100
O2266       O  0.59307520  0.29629124  0.70847115    -0.59900
H2267       H  0.58723523  0.27419223  0.71547569     0.44100
H2268       H  0.73433267  0.42537268  0.76379654     0.44100
C2269       C  0.65529327  0.35695638  0.53323340    -0.05000
C2270       C  0.68230090  0.38722694  0.01232502    -0.32400
C2271       C  0.68340193  0.38911338  0.97236361     0.36800
C2272       C  0.65502838  0.35928935  0.95171625    -0.05300
C2273       C  0.62357107  0.33045071  0.97430999    -0.32300
C2274       C  0.62284653  0.32815942  0.01400635     0.36700
H2275       H  0.70602648  0.41240237  0.52603929     0.17100
O2276       O  0.71112824  0.42113897  0.95422908    -0.59800
H2277       H  0.59870385  0.30932548  0.96146078     0.17100
O2278       O  0.59116138  0.29964765  0.03393001    -0.59900
H2279       H  0.58509800  0.27759932  0.02106109     0.44100
H2280       H  0.73425812  0.42981350  0.96173664     0.44100
C2281       C  0.57523230  0.15648580  0.61000961    -0.05000
C2282       C  0.61102085  0.18531711  0.61938080    -0.32400
C2283       C  0.62736931  0.22128613  0.61663376     0.36800
C2284       C  0.60840402  0.22961522  0.60411977    -0.05300
C2285       C  0.57363308  0.20129047  0.59242767    -0.32300
C2286       C  0.55698534  0.16500546  0.59526541     0.36700
H2287       H  0.62623077  0.18013343  0.63025699     0.17100
O2288       O  0.66169357  0.24829255  0.62738074    -0.59800
H2289       H  0.55865064  0.20731369  0.58279910     0.17100
O2290       O  0.52212619  0.13831349  0.58573267    -0.59900
H2291       H  0.52489273  0.13607607  0.55744346     0.44100
H2292       H  0.67855613  0.25383130  0.60387799     0.44100
C2293       C  0.85380376  0.44932125  0.61292112    -0.05000
C2294       C  0.84817674  0.47302110  0.61009649    -0.32400
C2295       C  0.81388321  0.45963419  0.60411633     0.36800
C2296       C  0.78502273  0.42233550  0.60058175    -0.05300
C2297       C  0.79137744  0.39891421  0.59971614    -0.32300
C2298       C  0.82558985  0.41214534  0.60578119     0.36700
H2299       H  0.86962309  0.50167801  0.61495421     0.17100
O2300       O  0.80790069  0.48283465  0.60509960    -0.59800
H2301       H  0.76910111  0.37014121  0.59669430     0.17100
O2302       O  0.83103400  0.38854563  0.60535595    -0.59900
H2303       H  0.81747383  0.37507180  0.62944003     0.44100
H2304       H  0.80934349  0.48681205  0.57790565     0.44100
C2305       C  0.56056479  0.43119853  0.65676048    -0.05000
C2306       C  0.58624550  0.44102588  0.62467238    -0.32400
C2307       C  0.60213484  0.42572693  0.61720901     0.36800
C2308       C  0.59201138  0.39957015  0.64177963    -0.05300
C2309       C  0.56696561  0.39036500  0.67436928    -0.32300
C2310       C  0.55156144  0.40616734  0.68219208     0.36700
H2311       H  0.59441483  0.46102004  0.60535601     0.17100
O2312       O  0.62895938  0.43799640  0.58707066    -0.59800
H2313       H  0.55885887  0.37036685  0.69359176     0.17100
O2314       O  0.52653126  0.39568833  0.71381799    -0.59900
H2315       H  0.54121445  0.41057908  0.73534427     0.44100
H2316       H  0.61649617  0.42962909  0.56369000     0.44100
C2317       C  0.59897023  0.23286310  0.86860801    -0.05000
C2318       C  0.61656649  0.22843625  0.89064872    -0.32400
C2319       C  0.60108324  0.19427642  0.90055937     0.36800
C2320       C  0.56742113  0.16347337  0.88782550    -0.05300
C2321       C  0.55108396  0.16805910  0.86356580    -0.32300
C2322       C  0.56667555  0.20248414  0.85401088     0.36700
H2323       H  0.64167909  0.25183262  0.90180331     0.17100
O2324       O  0.61897844  0.19162269  0.92319579    -0.59800
H2325       H  0.52548501  0.14503310  0.85294387     0.17100
O2326       O  0.54848878  0.20627740  0.83336018    -0.59900
H2327       H  0.55710644  0.20557490  0.80619252     0.44100
H2328       H  0.61144757  0.19508199  0.94981489     0.44100
C2329       C  0.86071300  0.44947226  0.84909905    -0.05000
C2330       C  0.83592716  0.41419919  0.83392199    -0.32400
C2331       C  0.79913904  0.39691305  0.83348974     0.36800
C2332       C  0.78646771  0.41463052  0.84861874    -0.05300
C2333       C  0.81138889  0.45041949  0.86178540    -0.32300
C2334       C  0.84829197  0.46803060  0.86169447     0.36700
H2335       H  0.84464655  0.39927980  0.82423377     0.17100
O2336       O  0.77525949  0.36195411  0.82033778    -0.59800
H2337       H  0.80180669  0.46426135  0.87349658     0.17100
O2338       O  0.87380340  0.00523888  0.87419167    -0.59900
H2339       H  0.88232308  0.02121922  0.85292387     0.44100
H2340       H  0.76650835  0.34702269  0.84278763     0.44100
C2341       C  0.61698574  0.42541928  0.88289836    -0.05000
C2342       C  0.58975162  0.41367091  0.86069185    -0.32400
C2343       C  0.57375181  0.42887520  0.86604779     0.36800
C2344       C  0.58436764  0.45572335  0.89449340    -0.05300
C2345       C  0.61203951  0.46801485  0.91620030    -0.32300
C2346       C  0.62862406  0.45334127  0.91033089     0.36700
H2347       H  0.58026175  0.39206176  0.83967330     0.17100
O2348       O  0.54640377  0.41603001  0.84475832    -0.59800
H2349       H  0.62117294  0.48938087  0.93733197     0.17100
O2350       O  0.65731235  0.46754547  0.93012526    -0.59900
H2351       H  0.64644621  0.45968651  0.95685622     0.44100
H2352       H  0.55880492  0.42588905  0.81887948     0.44100
C2353       C  0.93193666  0.08402410  0.69907693    -0.05000
C2354       C  0.90870274  0.07632357  0.67346538    -0.32400
C2355       C  0.89220069  0.09115774  0.67925057     0.36800
C2356       C  0.89917661  0.11454303  0.71089575    -0.05300
C2357       C  0.92307291  0.12279854  0.73592856    -0.32300
C2358       C  0.93917716  0.10770075  0.73041826     0.36700
H2359       H  0.90247736  0.05793388  0.64942740     0.17100
O2360       O  0.86759963  0.08082161  0.65523403    -0.59800
H2361       H  0.92938813  0.14121791  0.75997445     0.17100
O2362       O  0.96300038  0.11730606  0.75514396    -0.59900
H2363       H  0.94739575  0.10191506  0.77770301     0.44100
H2364       H  0.88247128  0.09337368  0.63096536     0.44100
C2365       C  0.90877686  0.35381883  0.74920101    -0.05000
C2366       C  0.92863404  0.34738957  0.76392766    -0.32400
C2367       C  0.91390738  0.31210768  0.76842209     0.36800
C2368       C  0.87916795  0.28254044  0.75746253    -0.05300
C2369       C  0.85812406  0.28866477  0.74592305    -0.32300
C2370       C  0.87230881  0.32375817  0.74217230     0.36700
H2371       H  0.95639616  0.36965719  0.77018222     0.17100
O2372       O  0.93488879  0.30681256  0.78028939    -0.59800
H2373       H  0.83100422  0.26598016  0.73821509     0.17100
O2374       O  0.85052001  0.32814127  0.73047367    -0.59900
H2375       H  0.84982490  0.32206649  0.70269495     0.44100
H2376       H  0.93353060  0.31058448  0.80845700     0.44100
C2377       C  0.70294945  0.08477925  0.75307526    -0.05000
C2378       C  0.69663879  0.10851366  0.75749031    -0.32400
C2379       C  0.66258030  0.09638511  0.75230857     0.36800
C2380       C  0.63411018  0.05986955  0.74276958    -0.05300
C2381       C  0.63958798  0.03553276  0.74198589    -0.32300
C2382       C  0.67384880  0.04786720  0.74693824     0.36700
H2383       H  0.71893620  0.13694806  0.76266306     0.17100
O2384       O  0.65754678  0.12050654  0.75599671    -0.59800
H2385       H  0.61805141  0.00731873  0.73495693     0.17100
O2386       O  0.67939878  0.02414932  0.74289824    -0.59900
H2387       H  0.67837977  0.01893097  0.76937398     0.44100
H2388       H  0.67007011  0.13444978  0.73213035     0.44100
C2389       C  0.86849775  0.08499633  0.97179672    -0.05000
C2390       C  0.89391788  0.09497545  0.93949893    -0.32400
C2391       C  0.91215841  0.08209488  0.93280192     0.36800
C2392       C  0.90496242  0.05796042  0.95845952    -0.05300
C2393       C  0.87904166  0.04757706  0.99073329    -0.32300
C2394       C  0.86092283  0.06085541  0.99744609     0.36700
H2395       H  0.90056012  0.11386347  0.91967531     0.17100
O2396       O  0.93721273  0.09371940  0.90097737    -0.59800
H2397       H  0.87277142  0.02915086  0.01096128     0.17100
O2398       O  0.83576747  0.04993409  0.02901417    -0.59900
H2399       H  0.81246776  0.02705492  0.02097356     0.44100
H2400       H  0.96061079  0.11627300  0.90930017     0.44100
C2401       C  0.89276592  0.28047712  0.98186249    -0.05000
C2402       C  0.87270782  0.28400504  0.45938842    -0.32400
C2403       C  0.88793307  0.31842833  0.45047315     0.36800
C2404       C  0.92332015  0.35027133  0.96420897    -0.05300
C2405       C  0.94152574  0.34549085  0.98518537    -0.32300
C2406       C  0.92648781  0.31097972  0.99395372     0.36700
H2407       H  0.84735950  0.26072286  0.44853518     0.17100
O2408       O  0.87007420  0.32139187  0.42816389    -0.59800
H2409       H  0.96802224  0.36848503  0.99406603     0.17100
O2410       O  0.94567841  0.30722263  0.01281373    -0.59900
H2411       H  0.96330666  0.30886040  0.99276586     0.44100
H2412       H  0.85176900  0.32034666  0.44622391     0.44100
C2413       C  0.69942039  0.09579996  0.01434102    -0.05000
C2414       C  0.69015626  0.11481737  0.52181745    -0.32400
C2415       C  0.65470872  0.10046272  0.51942609     0.36800
C2416       C  0.62709306  0.06481945  0.01007126    -0.05300
C2417       C  0.63617888  0.04320710  0.00582716    -0.32300
C2418       C  0.67218698  0.05859521  0.00736211     0.36700
H2419       H  0.71136182  0.14339839  0.52749864     0.17100
O2420       O  0.64772787  0.12311438  0.52460469    -0.59800
H2421       H  0.61602693  0.01484846  0.99853687     0.17100
O2422       O  0.68092130  0.03739008  0.00065190    -0.59900
H2423       H  0.68521469  0.03588659  0.97241443     0.44100
H2424       H  0.64301766  0.12509264  0.55268657     0.44100
C2425       C  0.82795916  0.15173577  0.90582157    -0.05000
C2426       C  0.80582351  0.15496324  0.89020152    -0.32400
C2427       C  0.80790422  0.15786543  0.85017556     0.36800
C2428       C  0.83224585  0.15703065  0.82354163    -0.05300
C2429       C  0.85797639  0.15953105  0.83976055    -0.32300
C2430       C  0.85640427  0.15740881  0.87971709     0.36700
H2431       H  0.78825796  0.15770760  0.90911987     0.17100
O2432       O  0.78855301  0.16499905  0.83765342    -0.59800
H2433       H  0.88149756  0.16602760  0.82198201     0.17100
O2434       O  0.88518785  0.16489238  0.89332600    -0.59900
H2435       H  0.88860523  0.14877727  0.87887048     0.44100
H2436       H  0.76325823  0.14784101  0.85050953     0.44100
C2437       C  0.83616564  0.16150395  0.65548957    -0.05000
C2438       C  0.80994391  0.12917009  0.63561669    -0.32400
C2439       C  0.80814799  0.12770419  0.59585737     0.36800
C2440       C  0.83360273  0.15885031  0.57331356    -0.05300
C2441       C  0.86271211  0.19012318  0.59209913    -0.32300
C2442       C  0.86436936  0.19161813  0.63216007     0.36700
H2443       H  0.79065388  0.10413538  0.65078441     0.17100
O2444       O  0.78231563  0.09495127  0.57882268    -0.59800
H2445       H  0.88556092  0.21335551  0.57561807     0.17100
O2446       O  0.89521479  0.22161974  0.64750815    -0.59900
H2447       H  0.89969031  0.24266942  0.63934851     0.44100
H2448       H  0.75833069  0.08597357  0.59193165     0.44100
C2449       C  0.83265748  0.65907139  0.03050332     0.30500
C2450       C  0.82894436  0.65261646  0.45140534     0.30500
C2451       C  0.83992272  0.63574400  0.00702454    -0.05700
C2452       C  0.79573498  0.64261544  0.01789639    -0.06500
C2453       C  0.85932042  0.69470323  0.00806624    -0.06400
C2454       C  0.83808373  0.63241951  0.46693875    -0.05700
C2455       C  0.79376050  0.63832769  0.47825937    -0.06500
C2456       C  0.85733803  0.69072397  0.46777300    -0.06400
C2457       C  0.84604989  0.61136221  0.45174143    -0.31800
N2458       N  0.85540153  0.60362754  0.47974982     0.14700
C2459       C  0.85088851  0.61797813  0.01445924    -0.31800
H2460       H  0.85812516  0.61808155  0.04158659     0.16700
C2461       C  0.75768646  0.61913676  0.47407382    -0.30700
N2462       N  0.73857169  0.61338908  0.00842494     0.13500
C2463       C  0.76136874  0.62765081  0.03575733    -0.30700
C2464       C  0.87144419  0.72282567  0.45453315    -0.31000
N2465       N  0.88000950  0.74604319  0.98513512     0.14000
H2466       H  0.87109940  0.72759278  0.42578924     0.16600
C2467       C  0.87222339  0.72920638  0.01749291    -0.31000
H2468       H  0.87235612  0.74002007  0.04600758     0.16600
H2469       H  0.75327334  0.62645968  0.06623076     0.16600
H2470       H  0.84585279  0.60282808  0.42210171     0.16700
H2471       H  0.74547158  0.60955356  0.44758284     0.16600
C2472       C  0.83468128  0.66119991  0.20127298     0.30500
C2473       C  0.83223037  0.65692672  0.27997752     0.30500
C2474       C  0.85517998  0.65110868  0.21306222    -0.05700
C2475       C  0.84966805  0.69562050  0.22586400    -0.06500
C2476       C  0.79669861  0.63363982  0.22361553    -0.06400
C2477       C  0.85366753  0.64833779  0.25243549    -0.05700
C2478       C  0.84911699  0.69371598  0.26522323    -0.06500
C2479       C  0.79511072  0.63088253  0.26303791    -0.06400
C2480       C  0.86709329  0.63185066  0.25507267    -0.31800
N2481       N  0.87844874  0.62670949  0.21940939     0.14700
C2482       C  0.87095429  0.63810069  0.19355203    -0.31800
H2483       H  0.87600652  0.63658625  0.16279495     0.16700
C2484       C  0.86193460  0.72654090  0.28174977    -0.30700
N2485       N  0.86903093  0.74753798  0.25406252     0.13500
C2486       C  0.86081483  0.72866873  0.22034502    -0.30700
C2487       C  0.75842258  0.60780077  0.27708223    -0.31000
N2488       N  0.73856668  0.59802608  0.24803574     0.14000
H2489       H  0.74699246  0.60063737  0.30654872     0.16600
C2490       C  0.76160301  0.61403957  0.21575727    -0.31000
H2491       H  0.75341948  0.61408178  0.18939970     0.16600
H2492       H  0.86171710  0.73808564  0.19402413     0.16600
H2493       H  0.86693332  0.62228360  0.28078727     0.16700
H2494       H  0.86432251  0.73398210  0.31182264     0.16600
O2495       O  0.56815207  0.98641535  0.37326317    -0.74800
O2496       O  0.55058999  0.96661743  0.43409877    -0.53700
C2497       C  0.56756366  0.97143340  0.40057941     0.78900
O2498       O  0.56596179  0.62524665  0.42299139    -0.59400
O2499       O  0.52108412  0.60178456  0.38589230    -0.52400
C2500       C  0.55075017  0.62838891  0.40006019     0.70900
O2501       O  0.59696650  0.57588968  0.48190978    -0.74000
O2502       O  0.56749886  0.51816153  0.49612086    -0.54500
C2503       C  0.59530259  0.55233123  0.49604498     0.76900
O2504       O  0.54767995  0.04848927  0.31776048    -0.59100
O2505       O  0.00409849  0.55083710  0.32413047    -0.52200
C2506       C  0.01269120  0.53265890  0.30947589     0.73500
Zr2507     Zr  0.54305263  0.01334691  0.36314480     2.54700
O2508       O  0.60949949  0.56440307  0.34941434    -0.79700
O2509       O  0.04721016  0.98266635  0.30422982    -0.93100
Zr2510     Zr  0.55841729  0.57828749  0.45124968     2.64700
O2511       O  0.62226710  0.62614929  0.42726263    -0.98100
O2512       O  0.56630697  0.61272442  0.51031955    -0.80100
O2513       O  0.56011267  0.53259699  0.42617624    -0.83500
O2514       O  0.54295003  0.56032420  0.38851983    -2.18200
O2515       O  0.89740229  0.94088946  0.36776889    -0.66900
O2516       O  0.92469380  0.99893936  0.35918466    -0.51400
C2517       C  0.89764806  0.96473409  0.35727373     0.71900
O2518       O  0.93609463  0.45227074  0.01358717    -0.59800
O2519       O  0.47367905  0.94700894  0.02082650    -0.51700
C2520       C  0.95510089  0.95472778  0.03253818     0.73700
O2521       O  0.92210322  0.52689597  0.47763104    -0.71200
O2522       O  0.94545521  0.55180709  0.41908118    -0.49800
C2523       C  0.92580689  0.54491949  0.45123189     0.75100
O2524       O  0.92561718  0.89145076  0.43008607    -0.66500
O2525       O  0.97356250  0.91393583  0.46147413    -0.53700
C2526       C  0.94231938  0.88768787  0.44996300     0.73500
Zr2527     Zr  0.93632679  0.93974646  0.39983574     2.77500
O2528       O  0.87286700  0.88771491  0.42032058    -0.97200
O2529       O  0.93510684  0.91035110  0.33891083    -0.78100
Zr2530     Zr  0.95183414  0.50504042  0.48999203     2.70100
O2531       O  0.89820905  0.97984506  0.03657808    -0.79300
O2532       O  0.47712146  0.55238886  0.04071107    -0.98400
Zr2533     Zr  0.51173683  0.97891632  0.46168554     2.21500
Zr2534     Zr  0.97912040  0.53433109  0.38877121     2.11100
O2535       O  0.93422351  0.98513179  0.42722788    -2.47100
O2536       O  0.95246945  0.95934757  0.46188855    -0.79100
O2537       O  0.98454659  0.99230365  0.37170965    -0.71300
O2538       O  0.51377055  0.52812027  0.49024078    -2.32300
O2539       O  0.99542193  0.95896067  0.39781698    -2.28500
O2540       O  0.49917134  0.55866389  0.45295691    -0.73100
H2541       H  0.56057142  0.58176280  0.37355757     0.78900
H2542       H  0.52062496  0.53555071  0.01474702     0.80000
H2543       H  0.91037653  0.97744957  0.42805482     0.82300
H2544       H  0.99479120  0.93946958  0.38877611     0.79900
H2545       H  0.58930287  0.63764998  0.50453793     0.42900
H2546       H  0.48700262  0.57418062  0.02769952     0.41900
H2547       H  0.87824765  0.95704537  0.02417214     0.41500
H2548       H  0.86058920  0.89738794  0.42788920     0.39500
H2549       H  0.92229636  0.91277811  0.32303572     0.42600
H2550       H  0.03180826  0.95707676  0.31069019     0.37400
H2551       H  0.62139579  0.55642347  0.35708471     0.43500
H2552       H  0.62218719  0.62862386  0.40005907     0.39900
H2553       H  0.86273059  0.87343277  0.39654575     0.44800
H2554       H  0.57290400  0.99307612  0.30210341     0.43600
H2555       H  0.62931311  0.64855713  0.44008367     0.43700
H2556       H  0.95664674  0.54838161  0.05651661     0.44100
O2557       O  0.53681589  0.95367117  0.13211264    -0.74800
O2558       O  0.53016964  0.94871309  0.19639344    -0.53700
C2559       C  0.53980895  0.94412778  0.16192828     0.78900
O2560       O  0.57300459  0.61597014  0.14293821    -0.59400
O2561       O  0.52405452  0.59219278  0.11230253    -0.52400
C2562       C  0.55598576  0.61910632  0.12272497     0.70900
O2563       O  0.60305619  0.56698892  0.20553180    -0.74000
O2564       O  0.56926281  0.51401530  0.23631784    -0.54500
C2565       C  0.59953310  0.54562715  0.22685302     0.76900
O2566       O  0.50534241  0.00096242  0.06799045    -0.59100
O2567       O  0.96097422  0.49999851  0.07369300    -0.52200
C2568       C  0.97590726  0.48766619  0.05880015     0.73500
Zr2569     Zr  0.50977384  0.97668834  0.11679641     2.54700
O2570       O  0.55224874  0.48470729  0.06365796    -0.79700
O2571       O  0.96600423  0.91419902  0.08553869    -0.93100
Zr2572     Zr  0.56625128  0.56919502  0.17067567     2.64700
O2573       O  0.61486272  0.58766617  0.11940947    -0.98100
O2574       O  0.60956741  0.62589540  0.20460201    -0.80100
O2575       O  0.54640303  0.51041195  0.16529017    -0.83500
O2576       O  0.53045265  0.53608873  0.12003909    -2.18200
O2577       O  0.88301169  0.93846775  0.14595126    -0.66900
O2578       O  0.91495559  0.99289794  0.11904976    -0.51400
C2579       C  0.88576259  0.95995080  0.12573704     0.71900
O2580       O  0.95914089  0.48959484  0.28129469    -0.59800
O2581       O  0.49909942  0.98270499  0.28990152    -0.51700
C2582       C  0.98935707  0.99916185  0.29599619     0.73700
O2583       O  0.95086672  0.55881209  0.22377989    -0.71200
O2584       O  0.95530397  0.56095785  0.15919653    -0.49800
C2585       C  0.94699806  0.56714111  0.19354284     0.75100
O2586       O  0.90871528  0.89424569  0.22233200    -0.66500
O2587       O  0.96181656  0.91617045  0.24164960    -0.53700
C2588       C  0.92750600  0.89065090  0.23848376     0.73500
Zr2589     Zr  0.91889907  0.93942566  0.18611274     2.77500
O2590       O  0.87061857  0.92467226  0.23596055    -0.97200
O2591       O  0.87802147  0.88177012  0.15270895    -0.78100
Zr2592     Zr  0.97707743  0.53489207  0.24014627     2.70100
O2593       O  0.94604986  0.03926054  0.29599111    -0.79300
O2594       O  0.52967241  0.59491812  0.26715662    -0.98400
Zr2595     Zr  0.50931649  0.98030114  0.22201365     2.21500
Zr2596     Zr  0.97760830  0.53062192  0.13423246     2.11100
O2597       O  0.93918083  0.99874781  0.19152042    -2.47100
O2598       O  0.95660539  0.97521720  0.23429268    -0.79100
O2599       O  0.95726147  0.96989122  0.13068308    -0.71300
O2600       O  0.52972384  0.53921284  0.22740355    -2.32300
O2601       O  0.96943500  0.94196221  0.17029779    -2.28500
O2602       O  0.51559197  0.56618524  0.18477876    -0.73100
H2603       H  0.54644140  0.55128721  0.09830906     0.78900
H2604       H  0.54655583  0.55326232  0.24626681     0.80000
H2605       H  0.91799231  0.99649326  0.19575142     0.82300
H2606       H  0.96170210  0.91827717  0.16817894     0.79900
H2607       H  0.60232139  0.61985994  0.23204224     0.42900
H2608       H  0.54436560  0.61048251  0.24464017     0.41900
H2609       H  0.92000163  0.01981965  0.29199659     0.41500
H2610       H  0.88360425  0.94347135  0.25610748     0.39500
H2611       H  0.85463629  0.86795226  0.16960865     0.42600
H2612       H  0.94143351  0.90548965  0.09530308     0.37400
H2613       H  0.57631006  0.50677368  0.07109474     0.43500
H2614       H  0.63756278  0.60880367  0.13020750     0.39900
H2615       H  0.85791496  0.93031552  0.22495700     0.45800
H2616       H  0.46934780  0.90209766  0.09847217     0.43600
H2617       H  0.61593254  0.56843764  0.11752618     0.43700
H2618       H  0.01471570  0.60155376  0.28283171     0.44100
C2619       C  0.65887955  0.85736775  0.32618884     0.30500
C2620       C  0.65906385  0.86020682  0.40550540     0.30500
C2621       C  0.65115933  0.87995209  0.35039843    -0.05700
C2622       C  0.63131600  0.82074129  0.34670992    -0.06500
C2623       C  0.69487853  0.87281113  0.34029469    -0.06400
C2624       C  0.65115968  0.88126121  0.39002431    -0.05700
C2625       C  0.63145701  0.82269597  0.38697702    -0.06500
C2626       C  0.69505417  0.87432156  0.38028695    -0.06400
C2627       C  0.64053134  0.89994667  0.40587014    -0.31800
N2628       N  0.63449589  0.91044407  0.37723106     0.14700
C2629       C  0.64093389  0.89829967  0.34333445    -0.31800
H2630       H  0.63737231  0.90160925  0.31556684     0.16700
C2631       C  0.62033885  0.79087199  0.39717540    -0.30700
N2632       N  0.61262816  0.76922425  0.36615330     0.13500
C2633       C  0.62034105  0.78729002  0.33506762    -0.30700
C2634       C  0.72978119  0.88988350  0.38620557    -0.31000
N2635       N  0.75034523  0.89808220  0.35178578     0.14000
H2636       H  0.73965837  0.89496529  0.41340457     0.16600
C2637       C  0.72931392  0.88722435  0.32362116    -0.31000
H2638       H  0.73872541  0.89024592  0.29337343     0.16600
H2639       H  0.62185775  0.77841048  0.30591369     0.16600
H2640       H  0.63548191  0.90365298  0.43615644     0.16700
H2641       H  0.62138182  0.78508391  0.42492671     0.16600
C2642       C  0.65470001  0.85415737  0.07621868     0.30500
C2643       C  0.65548914  0.85451406  0.15498576     0.30500
C2644       C  0.63186669  0.86086569  0.10304803    -0.05700
C2645       C  0.64092226  0.81894166  0.09250113    -0.06500
C2646       C  0.69240812  0.88227061  0.09147106    -0.06400
C2647       C  0.63232222  0.86121621  0.14243003    -0.05700
C2648       C  0.64181411  0.81947856  0.13213755    -0.06500
C2649       C  0.69267157  0.88256601  0.13142169    -0.06400
C2650       C  0.61541765  0.87363255  0.16017766    -0.31800
N2651       N  0.60447526  0.88043073  0.13297802     0.14700
C2652       C  0.61410085  0.87226655  0.09810490    -0.31800
H2653       H  0.60958783  0.87533109  0.07084912     0.16700
C2654       C  0.63093240  0.78704444  0.14028188    -0.30700
N2655       N  0.62216603  0.76633181  0.10780396     0.13500
C2656       C  0.62835555  0.78548310  0.07844397    -0.30700
C2657       C  0.72703381  0.89675965  0.13651154    -0.31000
N2658       N  0.74766328  0.90627072  0.10237347     0.14000
H2659       H  0.73557988  0.89679611  0.16261004     0.16600
C2660       C  0.72674451  0.89606607  0.07463702    -0.31000
H2661       H  0.73493794  0.89546809  0.04446936     0.16600
H2662       H  0.62476000  0.77597858  0.04900445     0.16600
H2663       H  0.61334462  0.87948178  0.19047377     0.16700
H2664       H  0.62952248  0.77892937  0.16785286     0.16600
C2665       C  0.65545188  0.85543565  0.19971335    -0.05000
C2666       C  0.68386001  0.88667909  0.21923338    -0.32400
C2667       C  0.68513289  0.88770284  0.25921312     0.36800
C2668       C  0.65777714  0.85693154  0.28187261    -0.05300
C2669       C  0.62732777  0.82716778  0.26320470    -0.32300
C2670       C  0.62572589  0.82643333  0.22332018     0.36700
H2671       H  0.70493455  0.91135905  0.20384742     0.17100
O2672       O  0.71213087  0.91980405  0.27638518    -0.59800
H2673       H  0.60348599  0.80457809  0.27975184     0.17100
O2674       O  0.59382846  0.79823040  0.20816978    -0.59900
H2675       H  0.58733666  0.77589279  0.21552529     0.44100
H2676       H  0.73561069  0.92796586  0.26258854     0.44100
C2677       C  0.65447682  0.85635388  0.03235527    -0.05000
C2678       C  0.68437595  0.88797047  0.51141524    -0.32400
C2679       C  0.68562186  0.89019578  0.47143125     0.36800
C2680       C  0.65713053  0.86068145  0.45059884    -0.05300
C2681       C  0.62536064  0.83207930  0.47317340    -0.32300
C2682       C  0.62432437  0.82962766  0.51295951     0.36700
H2683       H  0.70460891  0.91224547  0.02627260     0.17100
O2684       O  0.71354273  0.92230697  0.45352525    -0.59800
H2685       H  0.60046659  0.81129562  0.46021304     0.17100
O2686       O  0.59221113  0.80165513  0.53288351    -0.59900
H2687       H  0.58612511  0.77933462  0.52094494     0.44100
H2688       H  0.73657503  0.93066397  0.46091787     0.44100
C2689       C  0.57440353  0.65680560  0.11296368    -0.05000
C2690       C  0.61002848  0.68572687  0.12281928    -0.32400
C2691       C  0.62645246  0.72164612  0.11947334     0.36800
C2692       C  0.60766324  0.72977005  0.10598266    -0.05300
C2693       C  0.57302578  0.70135432  0.09412595    -0.32300
C2694       C  0.55635386  0.66516506  0.09749142     0.36700
H2695       H  0.62506298  0.68065347  0.13435542     0.17100
O2696       O  0.66065425  0.74877065  0.13051432    -0.59800
H2697       H  0.55818582  0.70725413  0.08383594     0.17100
O2698       O  0.52167347  0.63837695  0.08753959    -0.59900
H2699       H  0.52479222  0.63590624  0.05930592     0.44100
H2700       H  0.67742147  0.75783011  0.10638332     0.44100
C2701       C  0.85224598  0.94601806  0.11087772    -0.05000
C2702       C  0.84739279  0.96996638  0.10591322    -0.32400
C2703       C  0.81348281  0.95691816  0.09888961     0.36800
C2704       C  0.78396089  0.91967696  0.09729414    -0.05300
C2705       C  0.78945928  0.89579600  0.09850121    -0.32300
C2706       C  0.82349187  0.90871446  0.10490638     0.36700
H2707       H  0.86926777  0.99873754  0.10954800     0.17100
O2708       O  0.80846699  0.98054547  0.09703022    -0.59800
H2709       H  0.76669092  0.86702374  0.09680117     0.17100
O2710       O  0.82818778  0.88470492  0.10594687    -0.59900
H2711       H  0.81576594  0.87301239  0.13109388     0.44100
H2712       H  0.81744371  0.98898955  0.07031930     0.44100
C2713       C  0.55609908  0.92739067  0.15540258    -0.05000
C2714       C  0.58076825  0.93638764  0.12254465    -0.32400
C2715       C  0.59664609  0.92112196  0.11471235     0.36800
C2716       C  0.58803191  0.89618173  0.14003637    -0.05300
C2717       C  0.56333354  0.88715117  0.17298655    -0.32300
C2718       C  0.54735317  0.90243912  0.18075312     0.36700
H2719       H  0.58829750  0.95585416  0.10288434     0.17100
O2720       O  0.62207012  0.93236152  0.08332124    -0.59800
H2721       H  0.55595499  0.86769149  0.19250216     0.17100
O2722       O  0.52194202  0.89144192  0.21211498    -0.59900
H2723       H  0.53615758  0.90760499  0.23345808     0.44100
H2724       H  0.60810436  0.92203454  0.06085793     0.44100
C2725       C  0.60175242  0.73458093  0.36767230    -0.05000
C2726       C  0.61731642  0.73006729  0.39281802    -0.32400
C2727       C  0.60100694  0.69596889  0.40387310     0.36800
C2728       C  0.56916316  0.66509149  0.38833098    -0.05300
C2729       C  0.55525817  0.66964057  0.36065665    -0.32300
C2730       C  0.57133889  0.70411071  0.35037483     0.36700
H2731       H  0.64120375  0.75337091  0.40583213     0.17100
O2732       O  0.61600480  0.69349347  0.43081899    -0.59800
H2733       H  0.53121022  0.64651626  0.34770236     0.17100
O2734       O  0.55539451  0.70770470  0.32590094    -0.59900
H2735       H  0.56625303  0.70716644  0.29991964     0.44100
H2736       H  0.60460642  0.69508297  0.45585148     0.44100
C2737       C  0.86265357  0.95137281  0.34669166    -0.05000
C2738       C  0.83769365  0.91603405  0.33186561    -0.32400
C2739       C  0.80104375  0.89900138  0.33143061     0.36800
C2740       C  0.78865664  0.91695419  0.34653041    -0.05300
C2741       C  0.81379689  0.95292166  0.35911661    -0.32300
C2742       C  0.85069606  0.97041321  0.35865833     0.36700
H2743       H  0.84618964  0.90088964  0.32241475     0.17100
O2744       O  0.77701225  0.86408515  0.31820959    -0.59800
H2745       H  0.80442396  0.96699967  0.37055601     0.17100
O2746       O  0.87153938  0.50245184  0.37420525    -0.59900
H2747       H  0.87838421  0.51861014  0.35399114     0.44100
H2748       H  0.76929312  0.84907704  0.34017953     0.44100
C2749       C  0.61953150  0.92756753  0.38208510    -0.05000
C2750       C  0.59441180  0.91770643  0.35774752    -0.32400
C2751       C  0.57833199  0.93279447  0.36271797     0.36800
C2752       C  0.58681392  0.95784713  0.39272595    -0.05300
C2753       C  0.61235109  0.96829373  0.41664540    -0.32300
C2754       C  0.62881683  0.95350329  0.41148971     0.36700
H2755       H  0.58637574  0.89742982  0.33538982     0.17100
O2756       O  0.55271835  0.92126511  0.33950222    -0.59800
H2757       H  0.61965479  0.98808571  0.43930351     0.17100
O2758       O  0.65487826  0.96550184  0.43433903    -0.59900
H2759       H  0.64165800  0.95668024  0.46027927     0.44100
H2760       H  0.56682993  0.93699135  0.31697617     0.44100
C2761       C  0.93110261  0.58420815  0.19890487    -0.05000
C2762       C  0.90728539  0.57561552  0.17356130    -0.32400
C2763       C  0.88987648  0.58948151  0.17961038     0.36800
C2764       C  0.89650033  0.61265424  0.21133555    -0.05300
C2765       C  0.92123564  0.62208716  0.23587787    -0.32300
C2766       C  0.93832656  0.60802894  0.23003485     0.36700
H2767       H  0.90124745  0.55719224  0.14962450     0.17100
O2768       O  0.86475708  0.57838620  0.15588074    -0.59800
H2769       H  0.92743744  0.64062114  0.25976932     0.17100
O2770       O  0.96305439  0.61876299  0.25414307    -0.59900
H2771       H  0.94818735  0.60517323  0.27792359     0.44100
H2772       H  0.87905260  0.58943604  0.13087016     0.44100
C2773       C  0.90915671  0.85387141  0.25123137    -0.05000
C2774       C  0.92954916  0.84790863  0.26566963    -0.32400
C2775       C  0.91556418  0.81278549  0.26952162     0.36800
C2776       C  0.88077978  0.78293662  0.25885452    -0.05300
C2777       C  0.85926768  0.78861887  0.24768172    -0.32300
C2778       C  0.87288181  0.82348536  0.24406924     0.36700
H2779       H  0.95726730  0.87043873  0.27186241     0.17100
O2780       O  0.93738328  0.80799539  0.28010990    -0.59800
H2781       H  0.83224899  0.76572621  0.23989292     0.17100
O2782       O  0.85084735  0.82729522  0.23186111    -0.59900
H2783       H  0.85130779  0.82215317  0.20390065     0.44100
H2784       H  0.93620823  0.81118008  0.30834795     0.44100
C2785       C  0.70189964  0.58384567  0.25191930    -0.05000
C2786       C  0.69645735  0.60789392  0.25174005    -0.32400
C2787       C  0.66261414  0.59556267  0.24578676     0.36800
C2788       C  0.63328026  0.55840516  0.24015831    -0.05300
C2789       C  0.63805841  0.53401394  0.24329655    -0.32300
C2790       C  0.67230515  0.54663397  0.24887359     0.36700
H2791       H  0.71931610  0.63661031  0.25392343     0.17100
O2792       O  0.65869081  0.62015568  0.24480650    -0.59800
H2793       H  0.61596121  0.50537422  0.23891871     0.17100
O2794       O  0.67735040  0.52273401  0.24815979    -0.59900
H2795       H  0.67671303  0.51949028  0.27537050     0.44100
H2796       H  0.67102803  0.63163223  0.21954016     0.44100
C2797       C  0.87182351  0.58778717  0.47301484    -0.05000
C2798       C  0.89467192  0.59519084  0.43895462    -0.32400
C2799       C  0.91213972  0.58154688  0.43153103     0.36800
C2800       C  0.90669677  0.55917204  0.45824534    -0.05300
C2801       C  0.88354373  0.55150869  0.49239147    -0.32300
C2802       C  0.86629683  0.56563849  0.49990002     0.36700
H2803       H  0.89999245  0.61268449  0.41815991     0.17100
O2804       O  0.93475923  0.59075584  0.39798635    -0.59800
H2805       H  0.87882775  0.53460889  0.51355355     0.17100
O2806       O  0.84411711  0.55754441  0.53353351    -0.59900
H2807       H  0.81960156  0.53471240  0.52812681     0.44100
H2808       H  0.95912751  0.61345992  0.40403916     0.44100
C2809       C  0.89388606  0.78161220  0.48071231    -0.05000
C2810       C  0.87440804  0.78549693  0.96038058    -0.32400
C2811       C  0.88953397  0.81971149  0.95057728     0.36800
C2812       C  0.92455336  0.85085436  0.46103118    -0.05300
C2813       C  0.94135759  0.84663533  0.48510383    -0.32300
C2814       C  0.92625983  0.81240723  0.49492382     0.36700
H2815       H  0.84898568  0.76195546  0.94988510     0.17100
O2816       O  0.87151605  0.82214594  0.92789145    -0.59800
H2817       H  0.96675636  0.86989771  0.49587159     0.17100
O2818       O  0.94414382  0.80933593  0.51706575    -0.59900
H2819       H  0.95865614  0.80526500  0.49872729     0.44100
H2820       H  0.85433701  0.82285855  0.94589553     0.44100
C2821       C  0.70097284  0.59570098  0.51557528    -0.05000
C2822       C  0.69043329  0.61620349  0.02347878    -0.32400
C2823       C  0.65494777  0.60134363  0.01999031     0.36800
C2824       C  0.62923049  0.56571057  0.50989260    -0.05300
C2825       C  0.63816461  0.54394450  0.50454089    -0.32300
C2826       C  0.67397092  0.55893629  0.50639564     0.36700
H2827       H  0.71089142  0.64457256  0.03069068     0.17100
O2828       O  0.64722140  0.62339909  0.02602437    -0.59800
H2829       H  0.61815602  0.51593218  0.49588816     0.17100
O2830       O  0.68285835  0.53793130  0.49747414    -0.59900
H2831       H  0.68840958  0.53863158  0.46922361     0.44100
H2832       H  0.63018116  0.61503165  0.04992054     0.44100
C2833       C  0.82910340  0.65242365  0.40678476    -0.05000
C2834       C  0.80612209  0.65475340  0.39159312    -0.32400
C2835       C  0.80716833  0.65683765  0.35162388     0.36800
C2836       C  0.83138933  0.65619754  0.32454273    -0.05300
C2837       C  0.85800490  0.65968776  0.34018804    -0.32300
C2838       C  0.85737552  0.65825738  0.38012508     0.36700
H2839       H  0.78863435  0.65744231  0.41077826     0.17100
O2840       O  0.78690582  0.66305601  0.33957869    -0.59800
H2841       H  0.88131594  0.66618126  0.32183636     0.17100
O2842       O  0.88674341  0.66639391  0.39306830    -0.59900
H2843       H  0.89009555  0.65020803  0.37868809     0.44100
H2844       H  0.76173690  0.64530327  0.35250253     0.44100
C2845       C  0.83561140  0.66163365  0.15672626    -0.05000
C2846       C  0.80949487  0.62960418  0.13642132    -0.32400
C2847       C  0.80823484  0.62873149  0.09665393     0.36800
C2848       C  0.83424275  0.66016361  0.07461085    -0.05300
C2849       C  0.86329574  0.69099326  0.09381541    -0.32300
C2850       C  0.86445406  0.69181549  0.13384925     0.36700
H2851       H  0.78997743  0.60436453  0.15119225     0.17100
O2852       O  0.78250406  0.59626496  0.07907735    -0.59800
H2853       H  0.88648002  0.71431185  0.07766227     0.17100
O2854       O  0.89552847  0.72100117  0.14955992    -0.59900
H2855       H  0.90102116  0.74267617  0.14165257     0.44100
H2856       H  0.75844652  0.58728557  0.09192369     0.44100
C2857       C  0.83328138  0.65916187  0.53015824     0.30500
C2858       C  0.82885717  0.65257945  0.95171787     0.30500
C2859       C  0.84086487  0.63614893  0.50627309    -0.05700
C2860       C  0.79613004  0.64222735  0.51788948    -0.06500
C2861       C  0.85945247  0.69480692  0.50763749    -0.06400
C2862       C  0.83722989  0.63185915  0.96770911    -0.05700
C2863       C  0.79370356  0.63876029  0.97820070    -0.06500
C2864       C  0.85744460  0.69074301  0.96808895    -0.06400
C2865       C  0.84456527  0.61019991  0.95303319    -0.31800
N2866       N  0.85397752  0.60270546  0.98123840     0.14700
C2867       C  0.85203722  0.61845614  0.51324679    -0.31800
H2868       H  0.85911030  0.61820088  0.54030877     0.16700
C2869       C  0.75776559  0.61959176  0.97351850    -0.30700
N2870       N  0.73884665  0.61303087  0.50919935     0.13500
C2871       C  0.76191512  0.62725158  0.53618893    -0.30700
C2872       C  0.87049986  0.72265838  0.95531668    -0.31000
N2873       N  0.88152692  0.74650979  0.48414235     0.14000
H2874       H  0.86987936  0.72743430  0.92671115     0.16600
C2875       C  0.87329732  0.72969482  0.51674205    -0.31000
H2876       H  0.87377978  0.74088592  0.54511185     0.16600
H2877       H  0.75414501  0.62618109  0.56672930     0.16600
H2878       H  0.84398849  0.60115498  0.92355891     0.16700
H2879       H  0.74590557  0.61002839  0.94680106     0.16600
C2880       C  0.83561900  0.66195767  0.70121659     0.30500
C2881       C  0.83385725  0.65798322  0.77989974     0.30500
C2882       C  0.85637141  0.65196722  0.71271482    -0.05700
C2883       C  0.85066803  0.69639865  0.72572300    -0.06500
C2884       C  0.79776461  0.63456041  0.72390138    -0.06400
C2885       C  0.85519935  0.64929379  0.75202114    -0.05700
C2886       C  0.85050786  0.69467475  0.76505767    -0.06500
C2887       C  0.79655619  0.63205399  0.76332787    -0.06400
C2888       C  0.86965563  0.63364253  0.75422481    -0.31800
N2889       N  0.88119396  0.62883693  0.71842386     0.14700
C2890       C  0.87296485  0.63981745  0.69289080    -0.31800
H2891       H  0.87807408  0.63864940  0.66210615     0.16700
C2892       C  0.86143350  0.72675718  0.78182119    -0.30700
N2893       N  0.86686299  0.74698930  0.75439015     0.13500
C2894       C  0.85942567  0.72839003  0.72057107    -0.30700
C2895       C  0.76006410  0.61028636  0.77807343    -0.31000
N2896       N  0.73998938  0.60087160  0.74940076     0.14000
H2897       H  0.74898023  0.60350073  0.80767449     0.16600
C2898       C  0.76266119  0.61598754  0.71670541    -0.31000
H2899       H  0.75434176  0.61584700  0.69035685     0.16600
H2900       H  0.85927426  0.73722128  0.69443960     0.16600
H2901       H  0.86986823  0.62414540  0.77972105     0.16700
H2902       H  0.86358462  0.73413041  0.81192208     0.16600
O2903       O  0.56597390  0.98469084  0.87462673    -0.74800
O2904       O  0.54870430  0.96541221  0.93569503    -0.53700
C2905       C  0.56533924  0.96979435  0.90206802     0.78900
O2906       O  0.56453965  0.62329932  0.91966961    -0.59400
O2907       O  0.51851819  0.59992367  0.88444168    -0.52400
C2908       C  0.54893237  0.62657493  0.89741106     0.70900
O2909       O  0.59504156  0.57427739  0.98071762    -0.74000
O2910       O  0.56642290  0.51682337  0.99503365    -0.54500
C2911       C  0.59409007  0.55105596  0.99457965     0.76900
O2912       O  0.54571500  0.04626333  0.81753202    -0.59100
O2913       O  0.00455715  0.55217125  0.82576434    -0.52200
C2914       C  0.01585214  0.53628056  0.81100079     0.73500
Zr2915     Zr  0.54136195  0.01183205  0.86372544     2.54700
O2916       O  0.60694055  0.56081181  0.84977891    -0.79700
O2917       O  0.04543099  0.98144978  0.80676182    -0.93100
Zr2918     Zr  0.55567251  0.57657416  0.95113211     2.64700
O2919       O  0.62054629  0.62825284  0.93719722    -0.98100
O2920       O  0.55769812  0.60900817  0.00981551    -0.80100
O2921       O  0.55762120  0.53088674  0.92620890    -0.83500
O2922       O  0.54059121  0.55808636  0.88818288    -2.18200
O2923       O  0.89746067  0.94128867  0.86834548    -0.66900
O2924       O  0.92437971  0.99939400  0.86077774    -0.51400
C2925       C  0.89751619  0.96513987  0.85833709     0.71900
O2926       O  0.93469825  0.45112876  0.51281262    -0.59800
O2927       O  0.47425044  0.94595884  0.51855943    -0.51700
C2928       C  0.95745924  0.95614921  0.53241766     0.73700
O2929       O  0.92021806  0.52535486  0.97862581    -0.71200
O2930       O  0.94506518  0.55217083  0.92104571    -0.49800
C2931       C  0.92444718  0.54409473  0.95270684     0.75100
O2932       O  0.92492762  0.89171727  0.93164137    -0.66500
O2933       O  0.97302055  0.91389786  0.96257354    -0.53700
C2934       C  0.94157766  0.88773479  0.95134831     0.73500
Zr2935     Zr  0.93596043  0.94022370  0.90119461     2.77500
O2936       O  0.87261763  0.89074029  0.92532985    -0.97200
O2937       O  0.93199063  0.90846317  0.84125690    -0.78100
Zr2938     Zr  0.95189553  0.50568680  0.99129608     2.70100
O2939       O  0.89684364  0.97652242  0.53355509    -0.79300
O2940       O  0.48031359  0.55371175  0.54159294    -0.98400
Zr2941     Zr  0.51054904  0.97852258  0.96299704     2.21500
Zr2942     Zr  0.97986023  0.53597085  0.89082522     2.11100
O2943       O  0.93392498  0.98569332  0.92842113    -2.47100
O2944       O  0.95238857  0.96010590  0.96280940    -0.79100
O2945       O  0.98444709  0.99304399  0.87344099    -0.71300
O2946       O  0.51143420  0.52644657  0.99029392    -2.32300
O2947       O  0.99515605  0.95950422  0.89888703    -2.28500
O2948       O  0.49643494  0.55676278  0.95251186    -0.73100
H2949       H  0.55836211  0.57929835  0.87292490     0.78900
H2950       H  0.52281701  0.53693557  0.51479290     0.80000
H2951       H  0.91005681  0.97792934  0.92912261     0.82300
H2952       H  0.99459039  0.94007255  0.88971960     0.79900
H2953       H  0.57726786  0.61474525  0.02272506     0.42900
H2954       H  0.49414310  0.57654239  0.52826824     0.41900
H2955       H  0.87685975  0.96205188  0.51698177     0.41500
H2956       H  0.86270137  0.90230990  0.93611914     0.39500
H2957       H  0.92977946  0.91952679  0.82220273     0.42600
H2958       H  0.02939568  0.95596880  0.81403466     0.37400
H2959       H  0.61413745  0.55226677  0.82695012     0.43500
H2960       H  0.62412190  0.63332174  0.90988447     0.39900
H2961       H  0.86009642  0.87738829  0.90220324     0.44800
H2962       H  0.56808210  0.98932608  0.80177657     0.43600
H2963       H  0.62437160  0.64875049  0.95153159     0.43700
H2964       H  0.95662273  0.54604276  0.55708732     0.44100
O2965       O  0.53910559  0.95530864  0.63235971    -0.74800
O2966       O  0.52924251  0.94764843  0.69641661    -0.53700
C2967       C  0.54074142  0.94464196  0.66221291     0.78900
O2968       O  0.57138569  0.61552984  0.64338643    -0.59400
O2969       O  0.52303159  0.59108728  0.61132325    -0.52400
C2970       C  0.55456474  0.61825895  0.62229240     0.70900
O2971       O  0.60377125  0.56853112  0.70683699    -0.74000
O2972       O  0.57003511  0.51524000  0.73718434    -0.54500
C2973       C  0.60028542  0.54690834  0.72779252     0.76900
O2974       O  0.50699721  0.99968321  0.56587706    -0.59100
O2975       O  0.96073655  0.49739800  0.57449270    -0.52200
C2976       C  0.97547610  0.48526439  0.55770171     0.73500
Zr2977     Zr  0.51079522  0.97681006  0.61672977     2.54700
O2978       O  0.55751726  0.48877617  0.56521006    -0.79700
O2979       O  0.97044111  0.91645606  0.58463923    -0.93100
Zr2980     Zr  0.56591362  0.56994791  0.67231167     2.64700
O2981       O  0.61455252  0.58946558  0.62071492    -0.98100
O2982       O  0.60608945  0.62599547  0.70857041    -0.80100
O2983       O  0.54773469  0.51192210  0.66626475    -0.83500
O2984       O  0.53150792  0.53688271  0.62062050    -2.18200
O2985       O  0.88416198  0.94001283  0.64655621    -0.66900
O2986       O  0.91627870  0.99442313  0.61955476    -0.51400
C2987       C  0.88696907  0.96157995  0.62646438     0.71900
O2988       O  0.96399008  0.49181553  0.78005210    -0.59800
O2989       O  0.49599220  0.98047309  0.78985992    -0.51700
C2990       C  0.98978812  0.00034209  0.79752519     0.73700
O2991       O  0.95356104  0.56031630  0.72250259    -0.71200
O2992       O  0.95600577  0.56057401  0.65796694    -0.49800
C2993       C  0.94868120  0.56773436  0.69226769     0.75100
O2994       O  0.90868518  0.89378079  0.72030764    -0.66500
O2995       O  0.96062732  0.91597452  0.74296492    -0.53700
C2996       C  0.92670909  0.89026918  0.73804941     0.73500
Zr2997     Zr  0.92006937  0.94019957  0.68567132     2.77500
O2998       O  0.87096421  0.92380606  0.73520397    -0.97200
O2999       O  0.88075794  0.88422049  0.64913117    -0.78100
Zr3000     Zr  0.97941983  0.53621229  0.73990592     2.70100
O3001       O  0.94559668  0.03926920  0.79625802    -0.79300
O3002       O  0.52408980  0.59284867  0.76897730    -0.98400
Zr3003     Zr  0.50809552  0.97901746  0.72203457     2.21500
Zr3004     Zr  0.97844835  0.53025458  0.63406044     2.11100
O3005       O  0.94004992  0.99933478  0.69186184    -2.47100
O3006       O  0.95674963  0.97527973  0.73496188    -0.79100
O3007       O  0.95920808  0.97117794  0.63088718    -0.71300
O3008       O  0.52854128  0.53882437  0.72828543    -2.32300
O3009       O  0.97069777  0.94283316  0.67050568    -2.28500
O3010       O  0.51412252  0.56514780  0.68532079    -0.73100
H3011       H  0.54743389  0.55225306  0.59900240     0.78900
H3012       H  0.54510648  0.55314067  0.74733739     0.80000
H3013       H  0.91885981  0.99707706  0.69601288     0.82300
H3014       H  0.96297399  0.91914930  0.66814333     0.79900
H3015       H  0.59745958  0.61911982  0.73575427     0.42900
H3016       H  0.53711903  0.60954399  0.74733348     0.41900
H3017       H  0.91960225  0.01959376  0.79217164     0.41500
H3018       H  0.88310597  0.94378018  0.75439903     0.39500
H3019       H  0.85759981  0.86870555  0.66619188     0.42600
H3020       H  0.94545115  0.90647424  0.59466307     0.37400
H3021       H  0.58086485  0.50594959  0.57659101     0.43500
H3022       H  0.63576752  0.59913109  0.63367000     0.39900
H3023       H  0.85634782  0.92657579  0.72324681     0.45800
H3024       H  0.47019836  0.90183388  0.60052369     0.43600
H3025       H  0.60705127  0.56687793  0.60790103     0.43700
H3026       H  0.01978194  0.60670187  0.77405525     0.44100
C3027       C  0.65871407  0.85746567  0.82632658     0.30500
C3028       C  0.65868304  0.86016800  0.90555385     0.30500
C3029       C  0.65017143  0.87944417  0.85047802    -0.05700
C3030       C  0.63159297  0.82075189  0.84668667    -0.06500
C3031       C  0.69489927  0.87357064  0.84060422    -0.06400
C3032       C  0.65000379  0.88061567  0.89010411    -0.05700
C3033       C  0.63187743  0.82255301  0.88684054    -0.06500
C3034       C  0.69498207  0.87514071  0.88059562    -0.06400
C3035       C  0.63906705  0.89904131  0.90595651    -0.31800
N3036       N  0.63298832  0.90952854  0.87734968     0.14700
C3037       C  0.63969353  0.89761466  0.84341404    -0.31800
H3038       H  0.63625666  0.90105270  0.81563929     0.16700
C3039       C  0.62106055  0.79066724  0.89669208    -0.30700
N3040       N  0.61242333  0.76890998  0.86559347     0.13500
C3041       C  0.62007263  0.78715468  0.83473980    -0.30700
C3042       C  0.72969233  0.89085138  0.88673492    -0.31000
N3043       N  0.75031135  0.89891048  0.85238451     0.14000
H3044       H  0.73944554  0.89592843  0.91402207     0.16600
C3045       C  0.72935187  0.88790419  0.82409306    -0.31000
H3046       H  0.73875846  0.89053922  0.79386114     0.16600
H3047       H  0.62078125  0.77801161  0.80551499     0.16600
H3048       H  0.63397606  0.90270082  0.93624491     0.16700
H3049       H  0.62244937  0.78465191  0.92412079     0.16600
C3050       C  0.65516673  0.85415411  0.57648984     0.30500
C3051       C  0.65534343  0.85374661  0.65528547     0.30500
C3052       C  0.63244109  0.86102086  0.60340523    -0.05700
C3053       C  0.64087327  0.81861473  0.59251816    -0.06500
C3054       C  0.69276434  0.88181610  0.59207337    -0.06400
C3055       C  0.63262772  0.86098487  0.64278514    -0.05700
C3056       C  0.64140894  0.81871006  0.63218329    -0.06500
C3057       C  0.69264820  0.88169081  0.63198712    -0.06400
C3058       C  0.61582525  0.87344081  0.66072943    -0.31800
N3059       N  0.60525036  0.88074522  0.63365557     0.14700
C3060       C  0.61490549  0.87273229  0.59866965    -0.31800
H3061       H  0.61059908  0.87614558  0.57148242     0.16700
C3062       C  0.63018727  0.78601356  0.63995664    -0.30700
N3063       N  0.62159746  0.76562721  0.60722528     0.13500
C3064       C  0.62823612  0.78522205  0.57808280    -0.30700
C3065       C  0.72701778  0.89628873  0.63759053    -0.31000
N3066       N  0.74805327  0.90644838  0.60371462     0.14000
H3067       H  0.73542318  0.89632416  0.66380310     0.16600
C3068       C  0.72738036  0.89615580  0.57564752    -0.31000
H3069       H  0.73607688  0.89607940  0.54554525     0.16600
H3070       H  0.62490148  0.77607216  0.54852053     0.16600
H3071       H  0.61362301  0.87900532  0.69109041     0.16700
H3072       H  0.62848502  0.77751733  0.66741508     0.16600
C3073       C  0.65534564  0.85476173  0.69994992    -0.05000
C3074       C  0.68365418  0.88624140  0.71933409    -0.32400
C3075       C  0.68513905  0.88749446  0.75924894     0.36800
C3076       C  0.65772748  0.85688031  0.78206344    -0.05300
C3077       C  0.62723400  0.82701789  0.76357506    -0.32300
C3078       C  0.62570521  0.82584761  0.72364778     0.36700
H3079       H  0.70454336  0.91091021  0.70387665     0.17100
O3080       O  0.71240384  0.91963830  0.77615622    -0.59800
H3081       H  0.60328833  0.80465769  0.78026300     0.17100
O3082       O  0.59390400  0.79733511  0.70856458    -0.59900
H3083       H  0.58757539  0.77519452  0.71634902     0.44100
H3084       H  0.73575235  0.92777314  0.76195641     0.44100
C3085       C  0.65513615  0.85657755  0.53257556    -0.05000
C3086       C  0.68317440  0.88815190  0.01151356    -0.32400
C3087       C  0.68450896  0.89039649  0.97155796     0.36800
C3088       C  0.65655890  0.86054114  0.95053040    -0.05300
C3089       C  0.62509523  0.83137023  0.97276115    -0.32300
C3090       C  0.62404247  0.82882233  0.01249331     0.36700
H3091       H  0.70620917  0.91189349  0.52596174     0.17100
O3092       O  0.71202830  0.92269937  0.95381459    -0.59800
H3093       H  0.60046861  0.81016136  0.95956977     0.17100
O3094       O  0.59227962  0.80010086  0.03207897    -0.59900
H3095       H  0.58639852  0.77819211  0.01901187     0.44100
H3096       H  0.73524095  0.93150299  0.96122449     0.44100
C3097       C  0.57294507  0.65580409  0.61201345    -0.05000
C3098       C  0.60894503  0.68452124  0.62085664    -0.32400
C3099       C  0.62568895  0.72049816  0.61739246     0.36800
C3100       C  0.60678927  0.72893641  0.60497094    -0.05300
C3101       C  0.57177047  0.70069379  0.59382889    -0.32300
C3102       C  0.55482266  0.66437260  0.59710487     0.36700
H3103       H  0.62412786  0.67925992  0.63164149     0.17100
O3104       O  0.66042341  0.74740923  0.62713896    -0.59800
H3105       H  0.55690987  0.70684414  0.58416307     0.17100
O3106       O  0.51990642  0.63773565  0.58769238    -0.59900
H3107       H  0.52243730  0.63637935  0.55933328     0.44100
H3108       H  0.67662825  0.75341895  0.60290498     0.44100
C3109       C  0.85335103  0.94773237  0.61205274    -0.05000
C3110       C  0.84773036  0.97141051  0.60901577    -0.32400
C3111       C  0.81348827  0.95802786  0.60282350     0.36800
C3112       C  0.78465373  0.92073783  0.59915695    -0.05300
C3113       C  0.79092808  0.89729558  0.59866538    -0.32300
C3114       C  0.82504200  0.91049372  0.60513250     0.36700
H3115       H  0.86913325  0.00007419  0.61394251     0.17100
O3116       O  0.80747731  0.98121934  0.60389906    -0.59800
H3117       H  0.76860991  0.86851664  0.59576887     0.17100
O3118       O  0.83023795  0.88677405  0.60541122    -0.59900
H3119       H  0.81651881  0.87352396  0.62960224     0.44100
H3120       H  0.80789170  0.98446136  0.57676486     0.44100
C3121       C  0.55748009  0.92832363  0.65607834    -0.05000
C3122       C  0.58218344  0.93723530  0.62324372    -0.32400
C3123       C  0.59816292  0.92205944  0.61565669     0.36800
C3124       C  0.58927726  0.89696003  0.64092760    -0.05300
C3125       C  0.56490862  0.88834868  0.67407580    -0.32300
C3126       C  0.54916154  0.90385985  0.68184112     0.36700
H3127       H  0.58971654  0.95660248  0.60343481     0.17100
O3128       O  0.62410809  0.93367841  0.58470893    -0.59800
H3129       H  0.55763607  0.86908677  0.69380806     0.17100
O3130       O  0.52454302  0.89369608  0.71379777    -0.59900
H3131       H  0.53942070  0.91032500  0.73457553     0.44100
H3132       H  0.61071493  0.92415857  0.56187933     0.44100
C3133       C  0.59994788  0.73353804  0.86657645    -0.05000
C3134       C  0.61801938  0.72846375  0.88682267    -0.32400
C3135       C  0.60205070  0.69408486  0.89678362     0.36800
C3136       C  0.56744549  0.66349432  0.88564307    -0.05300
C3137       C  0.55032242  0.66866637  0.86331628    -0.32300
C3138       C  0.56627912  0.70339250  0.85402416     0.36700
H3139       H  0.64394716  0.75162147  0.89674812     0.17100
O3140       O  0.62036668  0.69105985  0.91822631    -0.59800
H3141       H  0.52383413  0.64591010  0.85421856     0.17100
O3142       O  0.54725942  0.70780621  0.83584320    -0.59900
H3143       H  0.55505239  0.70779693  0.80817973     0.44100
H3144       H  0.61496504  0.69632721  0.94498883     0.44100
C3145       C  0.86243644  0.95163137  0.84774207    -0.05000
C3146       C  0.83721175  0.91600423  0.83362967    -0.32400
C3147       C  0.80056073  0.89901679  0.83330660     0.36800
C3148       C  0.78852764  0.91747324  0.84727821    -0.05300
C3149       C  0.81386674  0.95361297  0.85917775    -0.32300
C3150       C  0.85065789  0.97089207  0.85914632     0.36700
H3151       H  0.84546264  0.90057674  0.82483850     0.17100
O3152       O  0.77618507  0.86367248  0.82146411    -0.59800
H3153       H  0.80468269  0.96796083  0.86999523     0.17100
O3154       O  0.87098274  0.50202674  0.87764499    -0.59900
H3155       H  0.88033269  0.51848784  0.85656668     0.44100
H3156       H  0.76645544  0.84951600  0.84488322     0.44100
C3157       C  0.61783937  0.92649750  0.88241353    -0.05000
C3158       C  0.59240015  0.91641540  0.85840707    -0.32400
C3159       C  0.57590546  0.93113074  0.86392373     0.36800
C3160       C  0.58430342  0.95595894  0.89417627    -0.05300
C3161       C  0.61002538  0.96651758  0.91785443    -0.32300
C3162       C  0.62703919  0.95228071  0.91199950     0.36700
H3163       H  0.58447551  0.89628634  0.83589568     0.17100
O3164       O  0.54994341  0.91943387  0.84110285    -0.59800
H3165       H  0.61721055  0.98613160  0.94073300     0.17100
O3166       O  0.65370409  0.96482905  0.93421727    -0.59900
H3167       H  0.64092616  0.95583748  0.96025239     0.44100
H3168       H  0.56377117  0.93167995  0.81644312     0.44100
C3169       C  0.93297675  0.58509173  0.69766203    -0.05000
C3170       C  0.91016962  0.57776704  0.67171261    -0.32400
C3171       C  0.89328451  0.59222691  0.67766533     0.36800
C3172       C  0.89925676  0.61466394  0.71003124    -0.05300
C3173       C  0.92305297  0.62283394  0.73515093    -0.32300
C3174       C  0.93968671  0.60827477  0.72932060     0.36700
H3175       H  0.90459116  0.55998031  0.64723371     0.17100
O3176       O  0.86933346  0.58243685  0.65303369    -0.59800
H3177       H  0.92889507  0.64078167  0.75955541     0.17100
O3178       O  0.96352495  0.61794480  0.75406539    -0.59900
H3179       H  0.94793999  0.60299802  0.77690879     0.44100
H3180       H  0.88460180  0.59450093  0.62869506     0.44100
C3181       C  0.90794125  0.85345021  0.75086109    -0.05000
C3182       C  0.92816319  0.84716186  0.76494934    -0.32400
C3183       C  0.91359840  0.81198337  0.76937761     0.36800
C3184       C  0.87860963  0.78235237  0.75914189    -0.05300
C3185       C  0.85720495  0.78831780  0.74825922    -0.32300
C3186       C  0.87127784  0.82338366  0.74457635     0.36700
H3187       H  0.95612011  0.86944997  0.77057929     0.17100
O3188       O  0.93501804  0.80684472  0.78030490    -0.59800
H3189       H  0.82991894  0.76556766  0.74103102     0.17100
O3190       O  0.84919897  0.82775305  0.73371004    -0.59900
H3191       H  0.84842451  0.82207669  0.70585359     0.44100
H3192       H  0.92959227  0.80490713  0.80853333     0.44100
C3193       C  0.70274146  0.58520962  0.75330174    -0.05000
C3194       C  0.69510781  0.60791986  0.75911733    -0.32400
C3195       C  0.66113396  0.59526383  0.75266884     0.36800
C3196       C  0.63395792  0.55919341  0.74080449    -0.05300
C3197       C  0.64074618  0.53573319  0.73791105    -0.32300
C3198       C  0.67507362  0.54869579  0.74374026     0.36700
H3199       H  0.71643860  0.63613658  0.76627446     0.17100
O3200       O  0.65487869  0.61846957  0.75752865    -0.59800
H3201       H  0.62026100  0.50793119  0.72870267     0.17100
O3202       O  0.68232666  0.52627979  0.73704896    -0.59900
H3203       H  0.68163496  0.51995700  0.76275507     0.44100
H3204       H  0.66590162  0.63198790  0.73342679     0.44100
C3205       C  0.87051772  0.58697898  0.97473166    -0.05000
C3206       C  0.89257987  0.59357162  0.94025051    -0.32400
C3207       C  0.90965317  0.57956069  0.93260466     0.36800
C3208       C  0.90505848  0.55804095  0.95977623    -0.05300
C3209       C  0.88288931  0.55135480  0.99450042    -0.32300
C3210       C  0.86570694  0.56555600  0.00204887     0.36700
H3211       H  0.89740706  0.61050988  0.91908780     0.17100
O3212       O  0.93075965  0.58725979  0.89817361    -0.59800
H3213       H  0.87889433  0.53517160  0.01604815     0.17100
O3214       O  0.84417778  0.55809665  0.03605336    -0.59900
H3215       H  0.81912623  0.53624327  0.03070639     0.44100
H3216       H  0.95520303  0.61083828  0.90233664     0.44100
C3217       C  0.89238336  0.78121804  0.98206994    -0.05000
C3218       C  0.87615440  0.78563813  0.45828039    -0.32400
C3219       C  0.89101195  0.81970300  0.44846978     0.36800
C3220       C  0.92349862  0.85075048  0.96253335    -0.05300
C3221       C  0.94051594  0.84624344  0.98592133    -0.32300
C3222       C  0.92526858  0.81188864  0.99553405     0.36700
H3223       H  0.85101265  0.76200998  0.44739399     0.17100
O3224       O  0.87304186  0.82190702  0.42543465    -0.59800
H3225       H  0.96630618  0.86936438  0.99610520     0.17100
O3226       O  0.94366261  0.80850763  0.01640781    -0.59900
H3227       H  0.95846217  0.80534635  0.99719988     0.44100
H3228       H  0.85498085  0.82150183  0.44313527     0.44100
C3229       C  0.70055835  0.59566092  0.01424110    -0.05000
C3230       C  0.69129382  0.61662354  0.52495801    -0.32400
C3231       C  0.65587223  0.60208158  0.52185640     0.36800
C3232       C  0.62856230  0.56496487  0.00785750    -0.05300
C3233       C  0.63796295  0.54356633  0.00255968    -0.32300
C3234       C  0.67389485  0.55890568  0.00472197     0.36700
H3235       H  0.71204192  0.64502040  0.53185815     0.17100
O3236       O  0.64855037  0.62447433  0.52770744    -0.59800
H3237       H  0.61810789  0.51550328  0.99410101     0.17100
O3238       O  0.68317565  0.53820077  0.99612287    -0.59900
H3239       H  0.68835120  0.53842321  0.96784526     0.44100
H3240       H  0.63162238  0.61640593  0.55165973     0.44100
C3241       C  0.82927233  0.65234698  0.90701351    -0.05000
C3242       C  0.80741200  0.65605830  0.89158771    -0.32400
C3243       C  0.80917204  0.65879601  0.85157919     0.36800
C3244       C  0.83282047  0.65719142  0.82460662    -0.05300
C3245       C  0.85827643  0.65902074  0.84054157    -0.32300
C3246       C  0.85706117  0.65709028  0.88052627     0.36700
H3247       H  0.79028733  0.65929671  0.91069267     0.17100
O3248       O  0.79028474  0.66662054  0.83940497    -0.59800
H3249       H  0.88138475  0.66487507  0.82249179     0.17100
O3250       O  0.88559546  0.66378497  0.89368822    -0.59900
H3251       H  0.88813303  0.64703275  0.87927036     0.44100
H3252       H  0.76499326  0.64970019  0.85233169     0.44100
C3253       C  0.83620902  0.66231269  0.65668808    -0.05000
C3254       C  0.81040677  0.63007403  0.63642336    -0.32400
C3255       C  0.80937985  0.62890344  0.59648151     0.36800
C3256       C  0.83496215  0.66035519  0.57433589    -0.05300
C3257       C  0.86344815  0.69158086  0.59367444    -0.32300
C3258       C  0.86453640  0.69270089  0.63377221     0.36700
H3259       H  0.79097860  0.60494342  0.65143304     0.17100
O3260       O  0.78437019  0.59618514  0.57886050    -0.59800
H3261       H  0.88638468  0.71506307  0.57760378     0.17100
O3262       O  0.89515072  0.72258719  0.64952983    -0.59900
H3263       H  0.89950536  0.74366805  0.64171325     0.44100
H3264       H  0.76000597  0.58666747  0.59125010     0.44100
loop_ 
_geom_bond_atom_site_label_1 
_geom_bond_atom_site_label_2 
_geom_bond_distance 
_geom_bond_site_symmetry_2 
_ccdc_geom_bond_type 
C1            C3   1.544       .  S
C1            C5   1.555       .  S
C1            C4   1.549       .  S
C1          C400   1.577       .  S
C2            C6   1.544       .  S
C2            C8   1.535       .  S
C2            C7   1.553       .  S
C2          C385   1.580       .  S
C3           C11   1.379       .  A
C3          C414   1.401   1_554  A
C4           C15   1.382       .  A
C4          C415   1.410   1_554  A
C5           C19   1.392       .  A
C5          C416   1.413   1_554  A
C6            C9   1.378       .  A
C6          C411   1.400       .  A
C7           C13   1.381       .  A
C7          C412   1.408       .  A
C8           C16   1.370       .  A
C8          C413   1.414       .  A
C9           N10   1.361       .  A
C9           H22   1.081       .  S
N10         C419   1.362       .  A
N10         C349   1.449       .  S
C11         N418   1.361   1_554  A
C11          H12   1.082       .  S
C13         N422   1.357       .  A
C13          H23   1.081       .  S
N14          C15   1.357       .  A
N14         C421   1.355   1_554  A
N14         C781   1.433       .  S
C15          H21   1.082       .  S
C16         N425   1.349       .  A
C16          H18   1.083       .  S
N17          C19   1.358   1_556  A
N17         C424   1.348       .  A
N17         C769   1.434       .  S
C19          H20   1.081       .  S
C24          C26   1.535       .  S
C24          C28   1.543       .  S
C24          C27   1.545       .  S
C24         C397   1.578       .  S
C25          C29   1.556       .  S
C25          C31   1.554       .  S
C25          C30   1.548       .  S
C25         C388   1.582       .  S
C26          C34   1.376       .  A
C26          C29   1.406       .  A
C27          C38   1.377       .  A
C27          C30   1.408       .  A
C28          C42   1.373       .  A
C28          C31   1.409       .  A
C29          C32   1.383       .  A
C30          C36   1.383       .  A
C31          C39   1.387       .  A
C32          N33   1.360       .  A
C32          H45   1.080       .  S
N33          C34   1.358       .  A
N33         C316   1.444       .  S
C34          H35   1.081       .  S
C36          N37   1.359       .  A
C36          H46   1.082       .  S
N37          C38   1.357       .  A
N37         C328   1.438       .  S
C38          H44   1.081       .  S
C39          N40   1.358       .  A
C39          H41   1.080       .  S
N40          C42   1.352       .  A
N40         C337   1.432       .  S
C42          H43   1.082       .  S
O47         Zr59   2.454       .  S
O47          C49   1.286       .  A
O48         Zr85   2.408       .  S
O48          C49   1.280       .  A
C49         C304   1.474       .  S
O50         Zr62   2.447       .  S
O50          C52   1.288       .  A
O51       Zr1718   2.409   1_455  S
O51          C52   1.284       .  A
C52         C280   1.486       .  S
O53         Zr62   2.429       .  S
O53          C55   1.286       .  A
O54        Zr901   2.449   1_545  S
O54          C55   1.292       .  A
C55         C376   1.491       .  S
O56         Zr59   2.408       .  S
O56        C2506   1.269       .  A
O57         Zr86   2.375       .  S
O57          C58   1.264       .  A
C58        O2504   1.267       .  A
C58         C950   1.433       .  S
Zr59        O876   2.435       .  S
Zr59       O1693   2.444       .  S
Zr59        O881   2.348       .  S
Zr59        O882   2.395       .  S
Zr59       O1723   2.370   1_455  S
Zr59       O1721   2.316   1_455  S
O60        Zr875   2.433       .  S
O60         H103   0.990       .  S
O61       Zr1691   2.440       .  S
O61         H102   0.990       .  S
O61        H1738   0.990       .  S
Zr62         O63   2.437       .  S
Zr62         O64   2.438       .  S
Zr62         O66   2.344       .  S
Zr62         O65   2.392       .  S
Zr62         O90   2.352       .  S
Zr62         O92   2.384   1_455  S
O63         H104   0.990       .  S
O63         H107   0.990       .  S
O64          H97   0.990       .  S
O65        Zr875   2.346       .  S
O65        Zr901   2.372   1_545  S
O66        Zr875   2.388       .  S
O66       Zr1718   2.409   1_455  S
O66          H93   0.964       .  S
O67         Zr79   2.441       .  S
O67          C69   1.287       .  A
O68        Zr902   2.444       .  S
O68          C69   1.289       .  A
C69         C289   1.491       .  S
O70        Zr490   2.423   1_564  S
O70         C888   1.269       .  A
O71        Zr493   2.390   1_654  S
O71        C1704   1.265       .  A
C72         O886   1.269       .  A
C72        O1703   1.267       .  A
C72         C936   1.420       .  S
O73         Zr82   2.468       .  S
O73          C75   1.291       .  A
O74         Zr86   2.411       .  S
O74          C75   1.282       .  A
C75         C352   1.502       .  S
O76         Zr79   2.463       .  S
O76          C78   1.291       .  A
O77       Zr1717   2.413       .  S
O77          C78   1.284       .  A
C78         C364   1.497       .  S
Zr79         O80   2.440       .  S
Zr79         O81   2.435       .  S
Zr79         O87   2.413       .  S
Zr79         O88   2.325       .  S
Zr79         O91   2.391       .  S
Zr79         O89   2.258       .  S
O80         H100   0.990       .  S
O80         H105   0.990       .  S
O81         H101   0.990       .  S
Zr82        O478   2.429   1_545  S
Zr82       O1307   2.428   1_545  S
Zr82       O2124   2.441       .  S
Zr82        O904   2.382   1_545  S
Zr82        O903   2.365   1_545  S
Zr82       O1724   2.360       .  S
Zr82       O1722   2.411       .  S
O83       Zr1306   2.428   1_554  S
O83          H99   0.990       .  S
O84       Zr2122   2.442   1_554  S
O84          H98   0.989       .  S
O84        H1740   0.990       .  S
Zr85        O870   2.453       .  S
Zr85        O479   2.393   1_455  S
Zr85       O1709   2.413   1_455  S
Zr85        O881   2.371       .  S
Zr85       O1720   2.390   1_455  S
Zr85        O906   2.437       .  S
Zr85       O1723   2.385   1_455  S
Zr86       O1683   2.407       .  S
Zr86        O884   2.448   1_545  S
Zr86       O1698   2.411       .  S
Zr86        O903   2.374   1_545  S
Zr86       O1724   2.365       .  S
Zr86        O905   2.301   1_545  S
O87        Zr898   2.367       .  S
O87        Zr902   2.375       .  S
O87          H95   0.965       .  S
O88        Zr898   2.385       .  S
O88       Zr1717   2.392       .  S
O89       Zr1691   2.318       .  S
O89        Zr902   2.300       .  S
O90       Zr1714   2.406   1_455  S
O90        Zr901   2.434   1_545  S
O90         H502   0.961       .  S
O91       Zr1691   2.377       .  S
O91       Zr1717   2.385       .  S
O91          H96   0.966       .  S
O92       Zr1714   2.365       .  S
O92       Zr1718   2.367       .  S
H94         O498   0.960   1_554  S
H106       O1693   0.990       .  S
H108       O1716   0.990       .  S
O109       Zr121   2.440       .  S
O109        C111   1.286       .  A
O110       Zr147   2.412       .  S
O110        C111   1.282       .  A
C111        C265   1.483       .  S
O112       Zr124   2.449       .  S
O112        C114   1.291       .  A
O113      Zr1780   2.462   1_455  S
O113        C114   1.295       .  A
C114        C241   1.510       .  S
O115       Zr124   2.447       .  S
O115        C117   1.289       .  A
O116       Zr963   2.426   1_545  S
O116        C117   1.286       .  A
C117        C340   1.479       .  S
O118       Zr121   2.353       .  S
O118       C2568   1.259   1_455  A
O119       Zr148   2.391   1_565  S
O119        C120   1.265       .  A
C120       O2566   1.259   1_565  A
C120        C888   1.421       .  S
Zr121       O938   2.431       .  S
Zr121      O1755   2.438   1_455  S
Zr121       O943   2.339       .  S
Zr121       O944   2.428       .  S
Zr121      O1783   2.378   1_455  S
Zr121      O1785   2.358   1_455  S
O122       Zr937   2.431       .  S
O122        H165   0.990       .  S
O123      Zr1753   2.436       .  S
O123        H164   0.990       .  S
O123       H1800   0.990       .  S
Zr124       O125   2.436       .  S
Zr124       O126   2.435       .  S
Zr124       O128   2.348       .  S
Zr124       O127   2.385       .  S
Zr124       O152   2.348       .  S
Zr124       O154   2.380       .  S
O125        H166   0.990       .  S
O125        H169   0.990       .  S
O126        H159   0.990       .  S
O127       Zr937   2.344   1_545  S
O127       Zr963   2.381   1_545  S
O128       Zr937   2.425   1_545  S
O128      Zr1780   2.429   1_455  S
O128        H155   0.969       .  S
O129       Zr141   2.427       .  S
O129        C131   1.285       .  A
O130       Zr964   2.426       .  S
O130        C131   1.289       .  A
C131        C253   1.478       .  S
O132       Zr144   2.398   1_565  S
O132        C950   1.266   1_565  A
O133       Zr147   2.380   1_655  S
O133       C1766   1.260       .  A
C134        O948   1.266       .  A
C134       O1765   1.260       .  A
C134        C874   1.438       .  S
O135       Zr144   2.450       .  S
O135        C137   1.288       .  A
O136       Zr148   2.423       .  S
O136        C137   1.285       .  A
C137        C313   1.485       .  S
O138       Zr141   2.438       .  S
O138        C140   1.287       .  A
O139      Zr1779   2.447       .  S
O139        C140   1.291       .  A
C140        C325   1.498       .  S
Zr141       O142   2.437       .  S
Zr141       O143   2.434       .  S
Zr141       O149   2.395       .  S
Zr141       O150   2.334       .  S
Zr141       O153   2.391       .  S
Zr141       O151   2.332       .  S
O142        H162   0.990       .  S
O142        H167   0.990       .  S
O143        H163   0.990       .  S
Zr144       O961   2.431       .  S
Zr144      O1778   2.444       .  S
Zr144       O966   2.395   1_545  S
Zr144       O965   2.361       .  S
Zr144      O1786   2.344       .  S
Zr144      O1784   2.401       .  S
O145       Zr960   2.429       .  S
O145        H161   0.990       .  S
O146      Zr1776   2.442   1_455  S
O146        H160   0.990       .  S
O146       H1802   0.990       .  S
Zr147       O932   2.441       .  S
Zr147      O1771   2.449   1_455  S
Zr147       O943   2.383       .  S
Zr147      O1782   2.404   1_455  S
Zr147       O968   2.433       .  S
Zr147      O1785   2.371   1_455  S
Zr148      O1745   2.442       .  S
Zr148       O946   2.412   1_545  S
Zr148      O1760   2.430       .  S
Zr148       O965   2.379       .  S
Zr148       O967   2.393   1_545  S
Zr148      O1786   2.366       .  S
O149       Zr960   2.362       .  S
O149       Zr964   2.380       .  S
O149        H157   0.965       .  S
O150       Zr960   2.400       .  S
O150      Zr1779   2.406       .  S
O151      Zr1753   2.373       .  S
O151       Zr964   2.395       .  S
O152      Zr1776   2.394   1_455  S
O152       Zr963   2.431   1_545  S
O152        H156   0.961       .  S
O153      Zr1753   2.358       .  S
O153      Zr1779   2.368       .  S
O153        H158   0.965       .  S
O154      Zr1776   2.346   1_455  S
O154      Zr1780   2.362   1_455  S
H168       O1755   0.990       .  S
H170       O1778   0.990       .  S
C171        C173   1.539       .  S
C171        C175   1.552       .  S
C171        C174   1.550       .  S
C171        C220   1.576       .  S
C172        C176   1.532       .  S
C172        C178   1.554       .  S
C172        C177   1.541       .  S
C172        C232   1.583       .  S
C173        C181   1.375       .  A
C173        C176   1.399       .  A
C174        C185   1.391       .  A
C174        C177   1.419       .  A
C175        C189   1.384       .  A
C175        C178   1.412       .  A
C176        C179   1.375       .  A
C177        C183   1.371       .  A
C178        C186   1.380       .  A
C179        N180   1.361       .  A
C179        H192   1.082       .  S
N180        C181   1.360       .  A
N180        C301   1.442       .  S
C181        H182   1.082       .  S
C183        N184   1.345       .  A
C183        H193   1.081       .  S
N184        C185   1.353       .  A
N184        C277   1.433       .  S
C185        H191   1.082       .  S
C186        N187   1.359       .  A
C186        H188   1.081       .  S
N187        C189   1.358       .  A
N187        C292   1.439       .  S
C189        H190   1.081       .  S
C194        C196   1.540       .  S
C194        C198   1.548       .  S
C194        C197   1.559       .  S
C194        C229   1.578       .  S
C195        C199   1.533       .  S
C195        C201   1.544       .  S
C195        C200   1.552       .  S
C195        C217   1.578       .  S
C196        C204   1.375       .  A
C196        C199   1.400       .  A
C197        C208   1.391       .  A
C197        C200   1.410       .  A
C198        C212   1.387       .  A
C198        C201   1.417       .  A
C199        C202   1.376       .  A
C200        C206   1.380       .  A
C201        C209   1.376       .  A
C202        N203   1.360       .  A
C202        H215   1.083       .  S
N203        C204   1.362       .  A
N203        C268   1.443       .  S
C204        H205   1.081       .  S
C206        N207   1.360       .  A
C206        H216   1.081       .  S
N207        C208   1.363       .  A
N207        C244   1.449       .  S
C208        H214   1.081       .  S
C209        N210   1.347       .  A
C209        H211   1.082       .  S
N210        C212   1.349       .  A
N210        C256   1.425       .  S
C212        H213   1.082       .  S
C217        C218   1.417       .  A
C217        C222   1.418       .  A
C218        C219   1.421       .  A
C218        H223   1.081       .  S
C219        C220   1.416       .  A
C219        O224   1.373       .  S
C220        C221   1.418       .  A
C221        C222   1.425       .  A
C221        H225   1.080       .  S
C222        O226   1.374       .  S
O224        H228   0.992       .  S
O226        H227   0.992       .  S
C229        C638   1.422       .  A
C229        C642   1.413       .  A
C230        C231   1.426       .  A
C230        C637   1.422       .  A
C230        H643   1.080       .  S
C231        C232   1.415       .  A
C231        O236   1.374       .  S
C232        C233   1.421       .  A
C233        C234   1.421       .  A
C233        H237   1.081       .  S
C234        C637   1.413       .  A
C234        O238   1.373       .  S
H235        C638   1.080       .  S
O236        H240   0.992       .  S
O238        H239   0.992       .  S
C241        C242   1.413       .  A
C241        C246   1.418       .  A
C242        C243   1.402       .  A
C242        H247   1.083       .  S
C243        C244   1.405       .  A
C243        O248   1.371       .  S
C244        C245   1.407       .  A
C245        C246   1.415       .  A
C245        H249   1.083       .  S
C246        O250   1.371       .  S
O248        H252   0.992       .  S
O250        H251   0.991       .  S
C253        C254   1.405       .  A
C253        C258   1.415       .  A
C254        C255   1.398       .  A
C254        H259   1.083       .  S
C255        C256   1.402       .  A
C255        O260   1.371       .  S
C256        C257   1.396       .  A
C257        C258   1.397       .  A
C257        H261   1.083       .  S
C258        O262   1.373       .  S
O260        H264   0.992       .  S
O262        H263   0.992       .  S
C265        C266   1.404       .  A
C265        C270   1.412       .  A
C266        C267   1.399       .  A
C266        H271   1.084       .  S
C267        C268   1.410       .  A
C267        O272   1.372       .  S
C268        C269   1.406       .  A
C269        C270   1.402       .  A
C269        H273   1.083       .  S
C270        O274   1.372       .  S
O272        H276   0.992       .  S
O274        H275   0.992       .  S
C277        C278   1.401       .  A
C277        C282   1.403       .  A
C278        C279   1.393       .  A
C278        H283   1.083       .  S
C279        C280   1.414       .  A
C279        O284   1.371       .  S
C280        C281   1.412       .  A
C281        C282   1.401       .  A
C281        H285   1.083       .  S
C282        O286   1.371       .  S
O284        H288   0.992       .  S
O286        H287   0.992       .  S
C289        C290   1.409       .  A
C289        C294   1.415       .  A
C290        C291   1.405       .  A
C290        H295   1.084       .  S
C291        C292   1.405       .  A
C291        O296   1.371       .  S
C292        C293   1.402       .  A
C293        C294   1.403       .  A
C293        H297   1.083       .  S
C294       O1114   1.371       .  S
O296        H300   0.992       .  S
O298       C1110   1.372   1_545  S
O298        H299   0.991       .  S
C301        C302   1.406       .  A
C301        C306   1.411       .  A
C302        C303   1.400       .  A
C302        H307   1.083       .  S
C303        C304   1.405       .  A
C303        O308   1.372       .  S
C304        C305   1.403       .  A
C305        C306   1.403       .  A
C305        H309   1.082       .  S
C306        O310   1.372       .  S
O308        H312   0.992       .  S
O310        H311   0.992       .  S
C313        C314   1.406       .  A
C313        C318   1.410       .  A
C314        C315   1.404       .  A
C314        H319   1.083       .  S
C315        C316   1.411       .  A
C315        O320   1.372       .  S
C316        C317   1.405       .  A
C317        C318   1.400       .  A
C317        H321   1.083       .  S
C318        O322   1.372       .  S
O320        H324   0.992       .  S
O322        H323   0.992       .  S
C325        C326   1.410       .  A
C325        C330   1.419       .  A
C326        C327   1.405       .  A
C326        H331   1.083       .  S
C327        C328   1.405       .  A
C327        O332   1.370       .  S
C328        C329   1.400       .  A
C329        C330   1.402       .  A
C329        H333   1.083       .  S
C330        O334   1.373       .  S
O332        H336   0.992       .  S
O334        H335   0.992       .  S
C337        C338   1.400       .  A
C337        C342   1.405       .  A
C338        C339   1.399       .  A
C338        H343   1.083       .  S
C339        C340   1.409       .  A
C339        O344   1.372       .  S
C340        C341   1.407       .  A
C341        C342   1.403       .  A
C341        H345   1.084       .  S
C342        O346   1.371       .  S
O344        H348   0.992       .  S
O346        H347   0.992       .  S
C349        C350   1.403       .  A
C349        C354   1.411       .  A
C350        C351   1.399       .  A
C350        H355   1.083       .  S
C351        C352   1.418       .  A
C351        O356   1.372       .  S
C352        C353   1.411       .  A
C353        C354   1.409       .  A
C353        H357   1.083       .  S
C354        O358   1.371       .  S
O356        H360   0.992       .  S
O358        H359   0.992       .  S
C361        C366   1.404       .  A
C361        C770   1.401       .  A
C361        N425   1.438       .  S
C362        C363   1.397       .  A
C362        C769   1.401       .  A
C362        H367   1.083       .  S
C363        C772   1.415       .  A
C363        O368   1.371       .  S
C364        C365   1.414       .  A
C364        C771   1.415       .  A
C365        C366   1.404       .  A
C365        H369   1.083       .  S
C366        O370   1.372       .  S
O368        H372   0.992       .  S
O370        H371   0.992       .  S
C373        C378   1.406       .  A
C373        C782   1.399       .  A
C373        N422   1.437       .  S
C374        C375   1.400       .  A
C374        C781   1.398       .  A
C374        H379   1.083       .  S
C375        C784   1.417       .  A
C375        O380   1.373       .  S
C376        C377   1.408       .  A
C376        C783   1.418       .  A
C377        C378   1.404       .  A
C377        H381   1.083       .  S
C378        O382   1.371       .  S
O380        H384   0.991       .  S
O382        H383   0.992       .  S
C385        C386   1.417       .  A
C385        C390   1.420       .  A
C386        C387   1.426       .  A
C386        H391   1.079       .  S
C387        C388   1.420       .  A
C387        O392   1.375       .  S
C388        C389   1.414       .  A
C389        C390   1.422       .  A
C389        H393   1.077       .  S
C390        O394   1.374       .  S
O392        H396   0.992       .  S
O394        H395   0.992       .  S
C397        C398   1.415       .  A
C397        C402   1.420       .  A
C398        C399   1.420       .  A
C398        H403   1.081       .  S
C399        C400   1.418       .  A
C399        O404   1.373       .  S
C400        C401   1.416       .  A
C401        C402   1.426       .  A
C401        H405   1.078       .  S
C402        O406   1.374       .  S
O404        H408   0.992       .  S
O406        H407   0.992       .  S
C409        C411   1.546       .  S
C409        C413   1.555       .  S
C409        C412   1.548       .  S
C409        C808   1.572       .  S
C410        C414   1.540       .  S
C410        C416   1.532       .  S
C410        C415   1.549       .  S
C410        C793   1.580       .  S
C411        C419   1.383       .  A
C412        C423   1.383       .  A
C413        C427   1.394       .  A
C414        C417   1.373       .  A
C415        C421   1.378       .  A
C416        C424   1.367       .  A
C417        N418   1.361       .  A
C417        H430   1.081       .  S
N418        C757   1.446       .  S
C419        H420   1.082       .  S
C421        H431   1.081       .  S
N422        C423   1.357       .  A
C423        H429   1.082       .  S
C424        H426   1.083       .  S
N425        C427   1.359       .  A
C427        H428   1.081       .  S
C432        C434   1.536       .  S
C432        C436   1.544       .  S
C432        C435   1.545       .  S
C432        C805   1.577       .  S
C433        C437   1.556       .  S
C433        C439   1.553       .  S
C433        C438   1.548       .  S
C433        C796   1.581       .  S
C434        C442   1.377       .  A
C434        C437   1.407       .  A
C435        C446   1.377       .  A
C435        C438   1.407       .  A
C436        C450   1.374       .  A
C436        C439   1.408       .  A
C437        C440   1.383       .  A
C438        C444   1.384       .  A
C439        C447   1.386       .  A
C440        N441   1.360       .  A
C440        H453   1.080       .  S
N441        C442   1.359       .  A
N441        C724   1.445       .  S
C442        H443   1.081       .  S
C444        N445   1.359       .  A
C444        H454   1.082       .  S
N445        C446   1.357       .  A
N445        C736   1.438       .  S
C446        H452   1.081       .  S
C447        N448   1.357       .  A
C447        H449   1.080       .  S
N448        C450   1.352       .  A
N448        C745   1.431       .  S
C450        H451   1.082       .  S
O455       Zr467   2.444       .  S
O455        C457   1.285       .  A
O456       Zr493   2.412       .  S
O456        C457   1.281       .  A
C457        C712   1.469       .  S
O458       Zr470   2.446       .  S
O458        C460   1.288       .  A
O459      Zr2126   2.405   1_455  S
O459        C460   1.283       .  A
C460        C688   1.485       .  S
O461       Zr470   2.426       .  S
O461        C463   1.285       .  A
O462      Zr1309   2.443   1_545  S
O462        C463   1.291       .  A
C463        C784   1.487   1_556  S
O464       Zr467   2.417       .  S
O464       C2914   1.269       .  A
O465       Zr494   2.376       .  S
O465        C466   1.264       .  A
C466       O2912   1.268       .  A
C466       C1358   1.436   1_545  S
Zr467      O1284   2.435       .  S
Zr467      O2101   2.437       .  S
Zr467      O1289   2.341       .  S
Zr467      O1290   2.389       .  S
Zr467      O2129   2.402   1_455  S
Zr467      O2131   2.386   1_455  S
O468      Zr1283   2.435       .  S
O468        H511   0.990       .  S
O469      Zr2099   2.443       .  S
O469        H510   0.990       .  S
O469       H2146   0.990       .  S
Zr470       O471   2.438       .  S
Zr470       O472   2.440   1_556  S
Zr470       O474   2.343       .  S
Zr470       O473   2.394       .  S
Zr470       O498   2.355       .  S
Zr470       O500   2.384   1_455  S
O471        H512   0.990       .  S
O471        H515   0.990       .  S
O472        H505   0.990       .  S
O473      Zr1283   2.343       .  S
O473      Zr1309   2.373   1_545  S
O474      Zr1283   2.391       .  S
O474      Zr2126   2.412   1_455  S
O474        H501   0.965       .  S
O475       Zr487   2.436       .  S
O475        C477   1.286       .  A
O476      Zr1310   2.450       .  S
O476        C477   1.290       .  A
C477        C697   1.490       .  S
O478       C1296   1.271       .  A
O479       C2112   1.266       .  A
C480       O1294   1.270       .  A
C480       O2111   1.265       .  A
C480       C1344   1.417       .  S
O481       Zr490   2.454       .  S
O481        C483   1.288       .  A
O482       Zr494   2.412       .  S
O482        C483   1.282       .  A
C483        C760   1.496       .  S
O484       Zr487   2.451       .  S
O484        C486   1.289       .  A
O485      Zr2125   2.415       .  S
O485        C486   1.285       .  A
C486        C772   1.492       .  S
Zr487       O488   2.441       .  S
Zr487       O489   2.435       .  S
Zr487       O495   2.407       .  S
Zr487       O496   2.327       .  S
Zr487       O499   2.392       .  S
Zr487       O497   2.255       .  S
O488        H508   0.990       .  S
O488        H513   0.990       .  S
O489        H509   0.990       .  S
Zr490       O899   2.430   1_546  S
Zr490      O1716   2.442   1_556  S
Zr490      O1312   2.384   1_545  S
Zr490      O1311   2.365   1_545  S
Zr490      O2132   2.364       .  S
Zr490      O2130   2.409       .  S
O491       Zr898   2.430       .  S
O491        H507   0.990       .  S
O492      Zr1714   2.443       .  S
O492        H506   0.989       .  S
O492       H2148   0.990       .  S
Zr493      O1278   2.437       .  S
Zr493      O2117   2.419   1_455  S
Zr493      O1289   2.374       .  S
Zr493      O2128   2.387   1_455  S
Zr493      O1314   2.441       .  S
Zr493      O2131   2.378   1_455  S
Zr494      O2091   2.403       .  S
Zr494      O1292   2.440   1_545  S
Zr494      O2106   2.411       .  S
Zr494      O1311   2.372   1_545  S
Zr494      O2132   2.365       .  S
Zr494      O1313   2.301   1_545  S
O495      Zr1306   2.367       .  S
O495      Zr1310   2.374       .  S
O495        H503   0.965       .  S
O496      Zr1306   2.382       .  S
O496      Zr2125   2.390       .  S
O497      Zr2099   2.315       .  S
O497      Zr1310   2.300       .  S
O498      Zr2122   2.409   1_455  S
O498      Zr1309   2.440   1_545  S
O499      Zr2099   2.373       .  S
O499      Zr2125   2.386       .  S
O499        H504   0.966       .  S
O500      Zr2122   2.362       .  S
O500      Zr2126   2.366       .  S
H514       O2101   0.990       .  S
H516       O2124   0.990       .  S
O517       Zr529   2.426       .  S
O517        C519   1.284       .  A
O518       Zr555   2.422       .  S
O518        C519   1.284       .  A
C519        C673   1.481       .  S
O520       Zr532   2.453       .  S
O520        C522   1.292       .  A
O521      Zr2188   2.453   1_455  S
O521        C522   1.294       .  A
C522        C649   1.505       .  S
O523       Zr532   2.445       .  S
O523        C525   1.289       .  A
O524      Zr1371   2.421   1_545  S
O524        C525   1.285       .  A
C525        C748   1.478       .  S
O526       Zr529   2.350       .  S
O526       C2976   1.261   1_455  A
O527       Zr556   2.391   1_565  S
O527        C528   1.266       .  A
C528       O2974   1.261       .  A
C528       C1296   1.419       .  S
Zr529      O1346   2.430       .  S
Zr529      O2163   2.435   1_455  S
Zr529      O1351   2.338       .  S
Zr529      O1352   2.413       .  S
Zr529      O2191   2.375   1_455  S
Zr529      O2193   2.358   1_455  S
O530      Zr1345   2.431       .  S
O530        H573   0.990   1_565  S
O531      Zr2161   2.436       .  S
O531        H572   0.990       .  S
O531       H2208   0.990       .  S
Zr532       O533   2.435       .  S
Zr532       O534   2.435       .  S
Zr532       O536   2.345       .  S
Zr532       O535   2.382       .  S
Zr532       O560   2.349       .  S
Zr532       O562   2.381       .  S
O533        H574   0.990       .  S
O533        H577   0.990       .  S
O534        H567   0.990       .  S
O535      Zr1345   2.339   1_545  S
O535      Zr1371   2.383   1_545  S
O536      Zr1345   2.420   1_545  S
O536      Zr2188   2.431   1_455  S
O536        H563   0.968       .  S
O537       Zr549   2.432       .  S
O537        C539   1.287       .  A
O538      Zr1372   2.416       .  S
O538        C539   1.287       .  A
C539        C661   1.473       .  S
O540       Zr552   2.399   1_565  S
O540       C1358   1.267       .  A
O541       Zr555   2.372   1_655  S
O541       C2174   1.261       .  A
C542       O1356   1.267       .  A
C542       O2173   1.261       .  A
C542       C1282   1.437       .  S
O543       Zr552   2.445       .  S
O543        C545   1.287       .  A
O544       Zr556   2.422       .  S
O544        C545   1.285       .  A
C545        C721   1.482       .  S
O546       Zr549   2.438       .  S
O546        C548   1.286       .  A
O547      Zr2187   2.441       .  S
O547        C548   1.289       .  A
C548        C733   1.497       .  S
Zr549       O550   2.438       .  S
Zr549       O551   2.434       .  S
Zr549       O557   2.397       .  S
Zr549       O558   2.332       .  S
Zr549       O561   2.393       .  S
Zr549       O559   2.329       .  S
O550        H570   0.990       .  S
O550        H575   0.990       .  S
O551        H571   0.990       .  S
Zr552      O1369   2.433       .  S
Zr552      O2186   2.444       .  S
Zr552      O1374   2.397   1_545  S
Zr552      O1373   2.363       .  S
Zr552      O2194   2.345       .  S
Zr552      O2192   2.396       .  S
O553      Zr1368   2.431       .  S
O553        H569   0.991       .  S
O554      Zr2184   2.442   1_455  S
O554        H568   0.989       .  S
O554       H2210   0.990       .  S
Zr555      O1340   2.429       .  S
Zr555      O2179   2.444   1_455  S
Zr555      O1351   2.378       .  S
Zr555      O2190   2.406   1_455  S
Zr555      O1376   2.436       .  S
Zr555      O2193   2.367   1_455  S
Zr556      O2153   2.448       .  S
Zr556      O1354   2.423   1_545  S
Zr556      O2168   2.428       .  S
Zr556      O1373   2.381       .  S
Zr556      O1375   2.391   1_545  S
Zr556      O2194   2.367       .  S
O557      Zr1368   2.357       .  S
O557      Zr1372   2.379       .  S
O557        H565   0.965       .  S
O558      Zr1368   2.396       .  S
O558      Zr2187   2.403       .  S
O559      Zr2161   2.374       .  S
O559      Zr1372   2.395       .  S
O560      Zr2184   2.397   1_455  S
O560      Zr1371   2.434   1_545  S
O560        H564   0.961       .  S
O561      Zr2161   2.359       .  S
O561      Zr2187   2.369       .  S
O561        H566   0.966       .  S
O562      Zr2184   2.345   1_455  S
O562      Zr2188   2.364   1_455  S
H576       O2163   0.990       .  S
H578       O2186   0.990       .  S
C579        C581   1.539       .  S
C579        C583   1.547       .  S
C579        C582   1.552       .  S
C579        C628   1.578       .  S
C580        C584   1.530       .  S
C580        C586   1.554       .  S
C580        C585   1.542       .  S
C580        C640   1.585       .  S
C581        C589   1.374       .  A
C581        C584   1.399       .  A
C582        C593   1.393       .  A
C582        C585   1.421       .  A
C583        C597   1.381       .  A
C583        C586   1.412       .  A
C584        C587   1.373       .  A
C585        C591   1.370       .  A
C586        C594   1.379       .  A
C587        N588   1.360       .  A
C587        H600   1.082       .  S
N588        C589   1.360       .  A
N588        C709   1.438       .  S
C589        H590   1.082       .  S
C591        N592   1.344       .  A
C591        H601   1.081       .  S
N592        C593   1.354       .  A
N592        C685   1.435       .  S
C593        H599   1.082       .  S
C594        N595   1.359       .  A
C594        H596   1.081       .  S
N595        C597   1.357       .  A
N595        C700   1.436       .  S
C597        H598   1.082       .  S
C602        C604   1.539       .  S
C602        C606   1.549       .  S
C602        C605   1.557       .  S
C602        C637   1.580       .  S
C603        C607   1.534       .  S
C603        C609   1.542       .  S
C603        C608   1.555       .  S
C603        C625   1.580       .  S
C604        C612   1.374       .  A
C604        C607   1.399       .  A
C605        C616   1.388       .  A
C605        C608   1.412       .  A
C606        C620   1.386       .  A
C606        C609   1.417       .  A
C607        C610   1.376       .  A
C608        C614   1.382       .  A
C609        C617   1.375       .  A
C610        N611   1.361       .  A
C610        H623   1.082       .  S
N611        C612   1.362       .  A
N611        C676   1.445       .  S
C612        H613   1.081       .  S
C614        N615   1.359       .  A
C614        H624   1.081       .  S
N615        C616   1.362       .  A
N615        C652   1.446       .  S
C616        H622   1.081       .  S
C617        N618   1.346       .  A
C617        H619   1.082       .  S
N618        C620   1.348       .  A
N618        C664   1.423       .  S
C620        H621   1.082       .  S
C625        C626   1.418       .  A
C625        C630   1.417       .  A
C626        C627   1.423       .  A
C626        H631   1.081       .  S
C627        C628   1.418       .  A
C627        O632   1.373       .  S
C628        C629   1.417       .  A
C629        C630   1.425       .  A
C629        H633   1.080       .  S
C630        O634   1.374       .  S
O632        H636   0.992       .  S
O634        H635   0.992       .  S
C638        C639   1.427   1_554  A
C639        C640   1.415       .  A
C639        O644   1.374       .  S
C640        C641   1.421       .  A
C641        C642   1.421   1_556  A
C641        H645   1.081       .  S
C642        O646   1.373       .  S
O644        H648   0.992       .  S
O646        H647   0.992       .  S
C649        C650   1.412       .  A
C649        C654   1.417       .  A
C650        C651   1.405       .  A
C650        H655   1.083       .  S
C651        C652   1.405       .  A
C651        O656   1.371       .  S
C652        C653   1.404       .  A
C653        C654   1.411       .  A
C653        H657   1.083       .  S
C654        O658   1.371       .  S
O656        H660   0.992       .  S
O658        H659   0.992       .  S
C661        C662   1.405       .  A
C661        C666   1.412       .  A
C662        C663   1.395       .  A
C662        H667   1.082       .  S
C663        C664   1.402       .  A
C663        O668   1.371       .  S
C664        C665   1.397       .  A
C665        C666   1.396       .  A
C665        H669   1.083       .  S
C666        O670   1.372       .  S
O668        H672   0.992       .  S
O670        H671   0.992       .  S
C673        C674   1.404       .  A
C673        C678   1.410       .  A
C674        C675   1.397       .  A
C674        H679   1.084       .  S
C675        C676   1.411       .  A
C675        O680   1.371       .  S
C676        C677   1.408       .  A
C677        C678   1.403       .  A
C677        H681   1.083       .  S
C678        O682   1.372       .  S
O680        H684   0.992       .  S
O682        H683   0.992       .  S
C685        C686   1.403       .  A
C685        C690   1.404       .  A
C686        C687   1.392       .  A
C686        H691   1.083       .  S
C687        C688   1.412       .  A
C687        O692   1.372       .  S
C688        C689   1.412       .  A
C689        C690   1.401       .  A
C689        H693   1.083       .  S
C690        O694   1.371       .  S
O692        H696   0.992       .  S
O694        H695   0.992       .  S
C697        C698   1.410       .  A
C697        C702   1.414       .  A
C698        C699   1.404       .  A
C698        H703   1.084       .  S
C699        C700   1.404       .  A
C699        O704   1.371       .  S
C700        C701   1.400       .  A
C701        C702   1.403       .  A
C701        H705   1.083       .  S
C702       O1522   1.372       .  S
O704        H708   0.992       .  S
O706       C1518   1.371   1_545  S
O706        H707   0.992       .  S
C709        C710   1.404       .  A
C709        C714   1.409       .  A
C710        C711   1.398       .  A
C710        H715   1.083       .  S
C711        C712   1.405       .  A
C711        O716   1.372       .  S
C712        C713   1.401       .  A
C713        C714   1.402       .  A
C713        H717   1.081       .  S
C714        O718   1.372       .  S
O716        H720   0.992       .  S
O718        H719   0.992       .  S
C721        C722   1.405       .  A
C721        C726   1.410       .  A
C722        C723   1.404       .  A
C722        H727   1.083       .  S
C723        C724   1.412       .  A
C723        O728   1.371       .  S
C724        C725   1.405       .  A
C725        C726   1.399       .  A
C725        H729   1.083       .  S
C726        O730   1.372       .  S
O728        H732   0.992       .  S
O730        H731   0.992       .  S
C733        C734   1.411       .  A
C733        C738   1.418       .  A
C734        C735   1.406       .  A
C734        H739   1.083       .  S
C735        C736   1.406       .  A
C735        O740   1.371       .  S
C736        C737   1.399       .  A
C737        C738   1.400       .  A
C737        H741   1.083       .  S
C738        O742   1.373       .  S
O740        H744   0.992       .  S
O742        H743   0.992       .  S
C745        C746   1.399       .  A
C745        C750   1.405       .  A
C746        C747   1.396       .  A
C746        H751   1.083       .  S
C747        C748   1.409       .  A
C747        O752   1.372       .  S
C748        C749   1.408       .  A
C749        C750   1.404       .  A
C749        H753   1.084       .  S
C750        O754   1.371       .  S
O752        H756   0.992       .  S
O754        H755   0.992       .  S
C757        C758   1.403       .  A
C757        C762   1.412   1_556  A
C758        C759   1.395       .  A
C758        H763   1.082       .  S
C759        C760   1.416       .  A
C759        O764   1.372       .  S
C760        C761   1.411       .  A
C761        C762   1.407   1_556  A
C761        H765   1.083   1_556  S
C762        O766   1.371       .  S
O764        H768   0.992       .  S
O766        H767   0.992       .  S
C769        C774   1.403       .  A
C770        C771   1.399       .  A
C770        H775   1.083       .  S
C771        O776   1.371       .  S
C772        C773   1.412       .  A
C773        C774   1.401       .  A
C773        H777   1.083       .  S
C774        O778   1.371   1_556  S
O776        H780   0.992       .  S
O778        H779   0.992   1_554  S
C781        C786   1.405       .  A
C782        C783   1.402       .  A
C782        H787   1.083       .  S
C783        O788   1.373       .  S
C784        C785   1.407       .  A
C785        C786   1.403       .  A
C785        H789   1.082   1_554  S
C786        O790   1.371   1_554  S
O788        H792   0.991       .  S
O790        H791   0.992       .  S
C793        C794   1.417       .  A
C793        C798   1.420       .  A
C794        C795   1.426       .  A
C794        H799   1.079       .  S
C795        C796   1.420       .  A
C795        O800   1.375       .  S
C796        C797   1.414       .  A
C797        C798   1.422       .  A
C797        H801   1.077       .  S
C798        O802   1.373       .  S
O800        H804   0.992       .  S
O802        H803   0.992       .  S
C805        C806   1.415       .  A
C805        C810   1.420       .  A
C806        C807   1.418       .  A
C806        H811   1.081       .  S
C807        C808   1.417       .  A
C807        O812   1.374       .  S
C808        C809   1.415       .  A
C809        C810   1.425       .  A
C809        H813   1.079       .  S
C810        O814   1.374       .  S
O812        H816   0.992       .  S
O814        H815   0.992       .  S
C817        C819   1.548       .  S
C817        C821   1.557       .  S
C817        C820   1.548       .  S
C817       C1216   1.579       .  S
C818        C822   1.543       .  S
C818        C824   1.535       .  S
C818        C823   1.547       .  S
C818       C1201   1.577       .  S
C819        C827   1.383       .  A
C819       C1230   1.404   1_554  A
C820        C831   1.382       .  A
C820       C1231   1.409   1_554  A
C821        C835   1.392       .  A
C821       C1232   1.414   1_554  A
C822       C1227   1.400       .  A
C822        C825   1.377       .  A
C823       C1228   1.408       .  A
C823        C829   1.378       .  A
C824       C1229   1.416       .  A
C824        C832   1.370       .  A
C825        N826   1.362       .  A
C825        H838   1.081       .  S
N826       C1235   1.363       .  A
N826       C1165   1.451       .  S
C827       N1234   1.362   1_554  A
C827        H828   1.082       .  S
C829       N1238   1.354       .  A
C829        H839   1.081       .  S
N830       C1237   1.355   1_554  A
N830        C831   1.356       .  A
N830       C1597   1.433       .  S
C831        H837   1.082       .  S
C832       N1241   1.348       .  A
C832        H834   1.083       .  S
N833       C1240   1.346       .  A
N833        C835   1.358   1_556  A
N833       C1585   1.432       .  S
C835        H836   1.081       .  S
C840        C842   1.542       .  S
C840        C844   1.547       .  S
C840        C843   1.553       .  S
C840       C1213   1.582       .  S
C841        C845   1.552       .  S
C841        C847   1.551       .  S
C841        C846   1.547       .  S
C841       C1204   1.577       .  S
C842        C850   1.381       .  A
C842        C845   1.404       .  A
C843        C854   1.382       .  A
C843        C846   1.408       .  A
C844        C858   1.375       .  A
C844        C847   1.407       .  A
C845        C848   1.381       .  A
C846        C852   1.385       .  A
C847        C855   1.387       .  A
C848        N849   1.360       .  A
C848        H861   1.080       .  S
N849        C850   1.362       .  A
N849       C1132   1.451       .  S
C850        H851   1.081       .  S
C852        N853   1.358       .  A
C852        H862   1.082       .  S
N853        C854   1.361       .  A
N853       C1144   1.443       .  S
C854        H860   1.081       .  S
C855        N856   1.357       .  A
C855        H857   1.080       .  S
N856        C858   1.353       .  A
N856       C1153   1.433       .  S
C858        H859   1.082       .  S
O863       Zr875   2.452   1_565  S
O863        C865   1.286       .  A
O864       Zr901   2.407       .  S
O864        C865   1.280       .  A
C865       C1120   1.471       .  S
O866       Zr878   2.439       .  S
O866        C868   1.287       .  A
O867      Zr2534   2.413   1_455  S
O867        C868   1.284       .  A
C868       C1096   1.487       .  S
O869       Zr878   2.419       .  S
O869        C871   1.284       .  A
O870        C871   1.293       .  A
C871       C1192   1.490       .  S
O872       Zr875   2.412       .  S
O872       C1690   1.268       .  A
O873       Zr902   2.376       .  S
O873        C874   1.264       .  A
C874       O1688   1.267       .  A
Zr875      O2509   2.441   1_545  S
Zr875      O2539   2.373   1_445  S
Zr875      O2537   2.316   1_445  S
O876        H919   0.990       .  S
O877      Zr2507   2.442   1_565  S
O877        H918   0.990       .  S
O877       H2554   0.990       .  S
Zr878       O879   2.436       .  S
Zr878       O880   2.439       .  S
Zr878       O882   2.342       .  S
Zr878       O881   2.392       .  S
Zr878       O906   2.352       .  S
Zr878       O908   2.380   1_455  S
O879        H920   0.990       .  S
O879        H923   0.990       .  S
O880        H913   0.990       .  S
O882      Zr2534   2.407   1_455  S
O882        H909   0.965       .  S
O883       Zr895   2.434       .  S
O883        C885   1.286       .  A
O884        C885   1.289       .  A
C885       C1105   1.489       .  S
O886      Zr1306   2.425   1_554  S
O887      Zr1309   2.399   1_654  S
O887       C2520   1.266       .  A
C888       O2519   1.267       .  A
O889       Zr898   2.468       .  S
O889        C891   1.291       .  A
O890       Zr902   2.413       .  S
O890        C891   1.282       .  A
C891       C1168   1.503       .  S
O892       Zr895   2.459       .  S
O892        C894   1.290       .  A
O893      Zr2533   2.404       .  S
O893        C894   1.283       .  A
C894       C1180   1.492       .  S
Zr895       O896   2.441       .  S
Zr895       O897   2.433       .  S
Zr895       O903   2.410       .  S
Zr895       O904   2.320       .  S
Zr895       O907   2.393       .  S
Zr895       O905   2.259       .  S
O896        H916   0.990       .  S
O896        H921   0.990       .  S
O897        H917   0.990       .  S
Zr898      O1294   2.430       .  S
Zr898      O2940   2.443       .  S
Zr898      O2540   2.361       .  S
Zr898      O2538   2.411       .  S
O899        H915   0.990       .  S
O900      Zr2938   2.443   1_554  S
O900        H914   0.989       .  S
O900       H2556   0.990       .  S
Zr901      O1295   2.392   1_455  S
Zr901      O2525   2.403   1_455  S
Zr901      O2536   2.395   1_455  S
Zr901      O2539   2.386   1_455  S
Zr902      O2499   2.405       .  S
Zr902      O2514   2.412       .  S
Zr902      O2540   2.366       .  S
O903        H911   0.965       .  S
O904      Zr2533   2.387       .  S
O905      Zr2507   2.320   1_565  S
O906      Zr2530   2.412   1_455  S
O906       H1318   0.961       .  S
O907      Zr2507   2.380   1_565  S
O907      Zr2533   2.386       .  S
O907        H912   0.966       .  S
O908      Zr2530   2.362       .  S
O908      Zr2534   2.364       .  S
H910       O1314   0.959   1_554  S
H922       O2509   0.990       .  S
H924       O2532   0.990       .  S
O925       Zr937   2.433       .  S
O925        C927   1.285       .  A
O926       Zr963   2.408       .  S
O926        C927   1.281       .  A
C927       C1081   1.477       .  S
O928       Zr940   2.452       .  S
O928        C930   1.292       .  A
O929      Zr2596   2.461   1_455  S
O929        C930   1.295       .  A
C930       C1057   1.510       .  S
O931       Zr940   2.443       .  S
O931        C933   1.289       .  A
O932        C933   1.289       .  A
C933       C1156   1.484       .  S
O934       Zr937   2.351       .  S
O934       C1752   1.259   1_455  A
O935       Zr964   2.392       .  S
O935        C936   1.266       .  A
C936       O1750   1.259       .  A
Zr937      O2571   2.438   1_455  S
Zr937      O2599   2.373   1_455  S
Zr937      O2601   2.357   1_455  S
O938        H981   0.990       .  S
O939      Zr2569   2.435       .  S
O939        H980   0.990       .  S
O939       H2616   0.990       .  S
Zr940       O941   2.436       .  S
Zr940       O942   2.435       .  S
Zr940       O944   2.345       .  S
Zr940       O943   2.383       .  S
Zr940       O968   2.346       .  S
Zr940       O970   2.380       .  S
O941        H982   0.990       .  S
O941        H985   0.990       .  S
O942        H975   0.990       .  S
O944      Zr2596   2.435   1_455  S
O944        H971   0.969       .  S
O945       Zr957   2.437       .  S
O945        C947   1.288       .  A
O946        C947   1.286       .  A
C947       C1069   1.475       .  S
O948       Zr960   2.398       .  S
O949       Zr963   2.376   1_655  S
O949       C2582   1.260       .  A
C950       O2581   1.261   1_545  A
O951       Zr960   2.454       .  S
O951        C953   1.289       .  A
O952       Zr964   2.428       .  S
O952        C953   1.286       .  A
C953       C1129   1.491       .  S
O954       Zr957   2.450       .  S
O954        C956   1.290       .  A
O955      Zr2595   2.442       .  S
O955        C956   1.290       .  A
C956       C1141   1.502       .  S
Zr957       O958   2.435       .  S
Zr957       O959   2.433       .  S
Zr957       O965   2.400   1_565  S
Zr957       O966   2.327       .  S
Zr957       O969   2.392       .  S
Zr957       O967   2.329       .  S
O958        H978   0.990       .  S
O958        H983   0.990       .  S
O959        H979   0.990       .  S
Zr960      O2594   2.443       .  S
Zr960      O2602   2.345       .  S
Zr960      O2600   2.396       .  S
O961        H977   0.990       .  S
O962      Zr2592   2.443   1_455  S
O962        H976   0.990       .  S
O962       H2618   0.990       .  S
Zr963      O2587   2.434   1_455  S
Zr963      O2598   2.404   1_455  S
Zr963      O2601   2.371   1_455  S
Zr964      O2561   2.454       .  S
Zr964      O2576   2.432       .  S
Zr964      O2602   2.365       .  S
O965        H973   0.966   1_545  S
O966      Zr2595   2.403       .  S
O967      Zr2569   2.371       .  S
O968      Zr2592   2.396   1_455  S
O968        H972   0.960       .  S
O969      Zr2569   2.360       .  S
O969      Zr2595   2.371       .  S
O969        H974   0.966       .  S
O970      Zr2592   2.346   1_455  S
O970      Zr2596   2.363   1_455  S
H984       O2571   0.990       .  S
H986       O2594   0.990       .  S
C987        C989   1.536       .  S
C987        C991   1.549       .  S
C987        C990   1.552       .  S
C987       C1036   1.576       .  S
C988        C992   1.535       .  S
C988        C994   1.553       .  S
C988        C993   1.542       .  S
C988       C1048   1.585       .  S
C989        C997   1.373       .  A
C989        C992   1.399       .  A
C990       C1001   1.392       .  A
C990        C993   1.420       .  A
C991       C1005   1.382       .  A
C991        C994   1.412       .  A
C992        C995   1.376       .  A
C993        C999   1.372       .  A
C994       C1002   1.379       .  A
C995        N996   1.362       .  A
C995       H1008   1.082       .  S
N996        C997   1.359       .  A
N996       C1117   1.441       .  S
C997        H998   1.082       .  S
C999       N1000   1.345       .  A
C999       H1009   1.081       .  S
N1000      C1001   1.353       .  A
N1000      C1093   1.434       .  S
C1001      H1007   1.082       .  S
C1002      N1003   1.358       .  A
C1002      H1004   1.081       .  S
N1003      C1005   1.357       .  A
N1003      C1108   1.436       .  S
C1005      H1006   1.082       .  S
C1010      C1012   1.539       .  S
C1010      C1014   1.551       .  S
C1010      C1013   1.555       .  S
C1010      C1045   1.579       .  S
C1011      C1015   1.532       .  S
C1011      C1017   1.544       .  S
C1011      C1016   1.552       .  S
C1011      C1033   1.579       .  S
C1012      C1020   1.373       .  A
C1012      C1015   1.400       .  A
C1013      C1024   1.388       .  A
C1013      C1016   1.410       .  A
C1014      C1028   1.387       .  A
C1014      C1017   1.418       .  A
C1015      C1018   1.375       .  A
C1016      C1022   1.379       .  A
C1017      C1025   1.376       .  A
C1018      N1019   1.359       .  A
C1018      H1031   1.083       .  S
N1019      C1020   1.361       .  A
N1019      C1084   1.441       .  S
C1020      H1021   1.081       .  S
C1022      N1023   1.359       .  A
C1022      H1032   1.081       .  S
N1023      C1024   1.362       .  A
N1023      C1060   1.447       .  S
C1024      H1030   1.081       .  S
C1025      N1026   1.347       .  A
C1025      H1027   1.082       .  S
N1026      C1028   1.350       .  A
N1026      C1072   1.426       .  S
C1028      H1029   1.082       .  S
C1033      C1034   1.417       .  A
C1033      C1038   1.419       .  A
C1034      C1035   1.421       .  A
C1034      H1039   1.081       .  S
C1035      C1036   1.417       .  A
C1035      O1040   1.373       .  S
C1036      C1037   1.417       .  A
C1037      C1038   1.425       .  A
C1037      H1041   1.080       .  S
C1038      O1042   1.374       .  S
O1040      H1044   0.992       .  S
O1042      H1043   0.992       .  S
C1045      C1454   1.421       .  A
C1045      C1458   1.414       .  A
C1046      C1453   1.420       .  A
C1046      C1047   1.425       .  A
C1046      H1459   1.079       .  S
C1047      C1048   1.416       .  A
C1047      O1052   1.374       .  S
C1048      C1049   1.421       .  A
C1049      C1050   1.423       .  A
C1049      H1053   1.081       .  S
C1050      C1453   1.414       .  A
C1050      O1054   1.373       .  S
H1051      C1454   1.080       .  S
O1052      H1056   0.992       .  S
O1054      H1055   0.992       .  S
C1057      C1058   1.413       .  A
C1057      C1062   1.418       .  A
C1058      C1059   1.402       .  A
C1058      H1063   1.083       .  S
C1059      C1060   1.404       .  A
C1059      O1064   1.371       .  S
C1060      C1061   1.406       .  A
C1061      C1062   1.414       .  A
C1061      H1065   1.083       .  S
C1062      O1066   1.371       .  S
O1064      H1068   0.992       .  S
O1066      H1067   0.992       .  S
C1069      C1070   1.405       .  A
C1069      C1074   1.412       .  A
C1070      C1071   1.397       .  A
C1070      H1075   1.083   1_565  S
C1071      C1072   1.402       .  A
C1071      O1076   1.371       .  S
C1072      C1073   1.398       .  A
C1073      C1074   1.398       .  A
C1073      H1077   1.083       .  S
C1074      O1078   1.372       .  S
O1076      H1080   0.992       .  S
O1078      H1079   0.992       .  S
C1081      C1082   1.403       .  A
C1081      C1086   1.410       .  A
C1082      C1083   1.397       .  A
C1082      H1087   1.084       .  S
C1083      C1084   1.410       .  A
C1083      O1088   1.372       .  S
C1084      C1085   1.406       .  A
C1085      C1086   1.401       .  A
C1085      H1089   1.083       .  S
C1086      O1090   1.372       .  S
O1088      H1092   0.992       .  S
O1090      H1091   0.992       .  S
C1093      C1094   1.400       .  A
C1093      C1098   1.404       .  A
C1094      C1095   1.393       .  A
C1094      H1099   1.083       .  S
C1095      C1096   1.414       .  A
C1095      O1100   1.372       .  S
C1096      C1097   1.411       .  A
C1097      C1098   1.402       .  A
C1097      H1101   1.083       .  S
C1098      O1102   1.371       .  S
O1100      H1104   0.992       .  S
O1102      H1103   0.992       .  S
C1105      C1106   1.410       .  A
C1105      C1110   1.415       .  A
C1106      C1107   1.402       .  A
C1106      H1111   1.084       .  S
C1107      C1108   1.403       .  A
C1107      O1112   1.371       .  S
C1108      C1109   1.402       .  A
C1109      C1110   1.403       .  A
C1109      H1113   1.083       .  S
O1112      H1116   0.992       .  S
O1114      H1115   0.991       .  S
C1117      C1118   1.406       .  A
C1117      C1122   1.410       .  A
C1118      C1119   1.400       .  A
C1118      H1123   1.083       .  S
C1119      C1120   1.406       .  A
C1119      O1124   1.372       .  S
C1120      C1121   1.402       .  A
C1121      C1122   1.402       .  A
C1121      H1125   1.083       .  S
C1122      O1126   1.372       .  S
O1124      H1128   0.992       .  S
O1126      H1127   0.992       .  S
C1129      C1130   1.408       .  A
C1129      C1134   1.410       .  A
C1130      C1131   1.408       .  A
C1130      H1135   1.083       .  S
C1131      C1132   1.414       .  A
C1131      O1136   1.371       .  S
C1132      C1133   1.408       .  A
C1133      C1134   1.400       .  A
C1133      H1137   1.082       .  S
C1134      O1138   1.372       .  S
O1136      H1140   0.992       .  S
O1138      H1139   0.992       .  S
C1141      C1142   1.412       .  A
C1141      C1146   1.418       .  A
C1142      C1143   1.408       .  A
C1142      H1147   1.083       .  S
C1143      C1144   1.408       .  A
C1143      O1148   1.371       .  S
C1144      C1145   1.399       .  A
C1145      C1146   1.402       .  A
C1145      H1149   1.083       .  S
C1146      O1150   1.372       .  S
O1148      H1152   0.992       .  S
O1150      H1151   0.992       .  S
C1153      C1154   1.399       .  A
C1153      C1158   1.405       .  A
C1154      C1155   1.399       .  A
C1154      H1159   1.083       .  S
C1155      C1156   1.411       .  A
C1155      O1160   1.372       .  S
C1156      C1157   1.408       .  A
C1157      C1158   1.406       .  A
C1157      H1161   1.084       .  S
C1158      O1162   1.371       .  S
O1160      H1164   0.992       .  S
O1162      H1163   0.992       .  S
C1165      C1166   1.404       .  A
C1165      C1170   1.413       .  A
C1166      C1167   1.399       .  A
C1166      H1171   1.082       .  S
C1167      C1168   1.418       .  A
C1167      O1172   1.372       .  S
C1168      C1169   1.411       .  A
C1169      C1170   1.410       .  A
C1169      H1173   1.083       .  S
C1170      O1174   1.371       .  S
O1172      H1176   0.992       .  S
O1174      H1175   0.992       .  S
C1177      C1586   1.402       .  A
C1177      C1182   1.403       .  A
C1177      N1241   1.434       .  S
C1178      C1585   1.401       .  A
C1178      C1179   1.398       .  A
C1178      H1183   1.083       .  S
C1179      C1588   1.415       .  A
C1179      O1184   1.371       .  S
C1180      C1587   1.414       .  A
C1180      C1181   1.413       .  A
C1181      C1182   1.401       .  A
C1181      H1185   1.083       .  S
C1182      O1186   1.372       .  S
O1184      H1188   0.992       .  S
O1186      H1187   0.992       .  S
C1189      C1598   1.398       .  A
C1189      C1194   1.406       .  A
C1189      N1238   1.435       .  S
C1190      C1597   1.398       .  A
C1190      C1191   1.400       .  A
C1190      H1195   1.083       .  S
C1191      C1600   1.414       .  A
C1191      O1196   1.372       .  S
C1192      C1599   1.417       .  A
C1192      C1193   1.407       .  A
C1193      C1194   1.404       .  A
C1193      H1197   1.082       .  S
C1194      O1198   1.371       .  S
O1196      H1200   0.991       .  S
O1198      H1199   0.992       .  S
C1201      C1202   1.417       .  A
C1201      C1206   1.419       .  A
C1202      C1203   1.423       .  A
C1202      H1207   1.079       .  S
C1203      C1204   1.418       .  A
C1203      O1208   1.375       .  S
C1204      C1205   1.415       .  A
C1205      C1206   1.421       .  A
C1205      H1209   1.078       .  S
C1206      O1210   1.374       .  S
O1208      H1212   0.992       .  S
O1210      H1211   0.992       .  S
C1213      C1214   1.417       .  A
C1213      C1218   1.420       .  A
C1214      C1215   1.421       .  A
C1214      H1219   1.081       .  S
C1215      C1216   1.419       .  A
C1215      O1220   1.374       .  S
C1216      C1217   1.416       .  A
C1217      C1218   1.427       .  A
C1217      H1221   1.079       .  S
C1218      O1222   1.373       .  S
O1220      H1224   0.992       .  S
O1222      H1223   0.992       .  S
C1225      C1227   1.546       .  S
C1225      C1229   1.552       .  S
C1225      C1228   1.552       .  S
C1225      C1624   1.575       .  S
C1226      C1230   1.541       .  S
C1226      C1232   1.529       .  S
C1226      C1231   1.548       .  S
C1226      C1609   1.580       .  S
C1227      C1235   1.382       .  A
C1228      C1239   1.384       .  A
C1229      C1243   1.391       .  A
C1230      C1233   1.374       .  A
C1231      C1237   1.377       .  A
C1232      C1240   1.367       .  A
C1233      N1234   1.360       .  A
C1233      H1246   1.081       .  S
N1234      C1573   1.444       .  S
C1235      H1236   1.082       .  S
C1237      H1247   1.081       .  S
N1238      C1239   1.358       .  A
C1239      H1245   1.082       .  S
C1240      H1242   1.083       .  S
N1241      C1243   1.356       .  A
C1243      H1244   1.082       .  S
C1248      C1250   1.536       .  S
C1248      C1252   1.544       .  S
C1248      C1251   1.544       .  S
C1248      C1621   1.578       .  S
C1249      C1253   1.557       .  S
C1249      C1255   1.551       .  S
C1249      C1254   1.550       .  S
C1249      C1612   1.581       .  S
C1250      C1258   1.377       .  A
C1250      C1253   1.406       .  A
C1251      C1262   1.378       .  A
C1251      C1254   1.407       .  A
C1252      C1266   1.373       .  A
C1252      C1255   1.410       .  A
C1253      C1256   1.384       .  A
C1254      C1260   1.385       .  A
C1255      C1263   1.386       .  A
C1256      N1257   1.361       .  A
C1256      H1269   1.081       .  S
N1257      C1258   1.358       .  A
N1257      C1540   1.447       .  S
C1258      H1259   1.081       .  S
C1260      N1261   1.360       .  A
C1260      H1270   1.082       .  S
N1261      C1262   1.357       .  A
N1261      C1552   1.441       .  S
C1262      H1268   1.081       .  S
C1263      N1264   1.356       .  A
C1263      H1265   1.080       .  S
N1264      C1266   1.351       .  A
N1264      C1561   1.429       .  S
C1266      H1267   1.082       .  S
O1271     Zr1283   2.450   1_565  S
O1271      C1273   1.285       .  A
O1272     Zr1309   2.416       .  S
O1272      C1273   1.282       .  A
C1273      C1528   1.474       .  S
O1274     Zr1286   2.444       .  S
O1274      C1276   1.288       .  A
O1275     Zr2942   2.402   1_455  S
O1275      C1276   1.283       .  A
C1276      C1504   1.482       .  S
O1277     Zr1286   2.432       .  S
O1277      C1279   1.286       .  A
O1278      C1279   1.289       .  A
C1279      C1600   1.486   1_556  S
O1280     Zr1283   2.413       .  S
O1280      C2098   1.269       .  A
O1281     Zr1310   2.373       .  S
O1281      C1282   1.264       .  A
C1282      O2096   1.269       .  A
Zr1283     O2917   2.441   1_545  S
Zr1283     O2947   2.374   1_445  S
Zr1283     O2945   2.317   1_445  S
O1284      H1327   0.990       .  S
O1285     Zr2915   2.440   1_565  S
O1285      H1326   0.990       .  S
O1285      H2962   0.990       .  S
Zr1286     O1287   2.438       .  S
Zr1286     O1288   2.438   1_556  S
Zr1286     O1290   2.340       .  S
Zr1286     O1289   2.389       .  S
Zr1286     O1314   2.346       .  S
Zr1286     O1316   2.383   1_455  S
O1287      H1328   0.990       .  S
O1287      H1331   0.990       .  S
O1288      H1321   0.990       .  S
O1290     Zr2942   2.412   1_455  S
O1290      H1317   0.965       .  S
O1291     Zr1303   2.438       .  S
O1291      C1293   1.287       .  A
O1292      C1293   1.288       .  A
C1293      C1513   1.487       .  S
O1295      C2928   1.265       .  A
C1296      O2927   1.266       .  A
O1297     Zr1306   2.458       .  S
O1297      C1299   1.289       .  A
O1298     Zr1310   2.415       .  S
O1298      C1299   1.283       .  A
C1299      C1576   1.499       .  S
O1300     Zr1303   2.455       .  S
O1300      C1302   1.290       .  A
O1301     Zr2941   2.408       .  S
O1301      C1302   1.284       .  A
C1302      C1588   1.491       .  S
Zr1303     O1304   2.440       .  S
Zr1303     O1305   2.434       .  S
Zr1303     O1311   2.402       .  S
Zr1303     O1312   2.324       .  S
Zr1303     O1315   2.392       .  S
Zr1303     O1313   2.261       .  S
O1304      H1324   0.990       .  S
O1304      H1329   0.990       .  S
O1305      H1325   0.989       .  S
Zr1306     O2532   2.442   1_556  S
Zr1306     O2948   2.364       .  S
Zr1306     O2946   2.414       .  S
O1307      H1323   0.990       .  S
O1308     Zr2530   2.443       .  S
O1308      H1322   0.990       .  S
O1308      H2964   0.990       .  S
Zr1309     O2933   2.408   1_455  S
Zr1309     O2944   2.391   1_455  S
Zr1309     O2947   2.383   1_455  S
Zr1310     O2907   2.414       .  S
Zr1310     O2922   2.417       .  S
Zr1310     O2948   2.366       .  S
O1311      H1319   0.965       .  S
O1312     Zr2941   2.392       .  S
O1313     Zr2915   2.317   1_565  S
O1314     Zr2938   2.409   1_455  S
O1315     Zr2915   2.373   1_565  S
O1315     Zr2941   2.386       .  S
O1315      H1320   0.966       .  S
O1316     Zr2938   2.357       .  S
O1316     Zr2942   2.365       .  S
H1330      O2917   0.990       .  S
H1332      O2940   0.990       .  S
O1333     Zr1345   2.438       .  S
O1333      C1335   1.286       .  A
O1334     Zr1371   2.423       .  S
O1334      C1335   1.284       .  A
C1335      C1489   1.483       .  S
O1336     Zr1348   2.440       .  S
O1336      C1338   1.289       .  A
O1337     Zr3004   2.450   1_455  S
O1337      C1338   1.293       .  A
C1338      C1465   1.498       .  S
O1339     Zr1348   2.435       .  S
O1339      C1341   1.287       .  A
O1340      C1341   1.287       .  A
C1341      C1564   1.478       .  S
O1342     Zr1345   2.359       .  S
O1342      C2160   1.260   1_455  A
O1343     Zr1372   2.382       .  S
O1343      C1344   1.265       .  A
C1344      O2158   1.261       .  A
Zr1345     O2979   2.436   1_455  S
Zr1345     O3007   2.375   1_455  S
Zr1345     O3009   2.361   1_455  S
O1346      H1389   0.990       .  S
O1347     Zr2977   2.437       .  S
O1347      H1388   0.990       .  S
O1347      H3024   0.990       .  S
Zr1348     O1349   2.435       .  S
Zr1348     O1350   2.436       .  S
Zr1348     O1352   2.347       .  S
Zr1348     O1351   2.380       .  S
Zr1348     O1376   2.352       .  S
Zr1348     O1378   2.378       .  S
O1349      H1390   0.990       .  S
O1349      H1393   0.990       .  S
O1350      H1383   0.990       .  S
O1352     Zr3004   2.420   1_455  S
O1352      H1379   0.967       .  S
O1353     Zr1365   2.428       .  S
O1353      C1355   1.286       .  A
O1354      C1355   1.288       .  A
C1355      C1477   1.477       .  S
O1356     Zr1368   2.401       .  S
O1357     Zr1371   2.380   1_655  S
O1357      C2990   1.261   1_565  A
C1358      O2989   1.261       .  A
O1359     Zr1368   2.451       .  S
O1359      C1361   1.288       .  A
O1360     Zr1372   2.419       .  S
O1360      C1361   1.284       .  A
C1361      C1537   1.484       .  S
O1362     Zr1365   2.442       .  S
O1362      C1364   1.287       .  A
O1363     Zr3003   2.452       .  S
O1363      C1364   1.292       .  A
C1364      C1549   1.502       .  S
Zr1365     O1366   2.433       .  S
Zr1365     O1367   2.434       .  S
Zr1365     O1373   2.399   1_565  S
Zr1365     O1374   2.331       .  S
Zr1365     O1377   2.390       .  S
Zr1365     O1375   2.328       .  S
O1366      H1386   0.990       .  S
O1366      H1391   0.990       .  S
O1367      H1387   0.990       .  S
Zr1368     O3002   2.441       .  S
Zr1368     O3010   2.345       .  S
Zr1368     O3008   2.401       .  S
O1369      H1385   0.990       .  S
O1370     Zr3000   2.441   1_455  S
O1370      H1384   0.989       .  S
O1370      H3026   0.990       .  S
Zr1371     O2995   2.437   1_455  S
Zr1371     O3006   2.405   1_455  S
Zr1371     O3009   2.368   1_455  S
Zr1372     O2969   2.449       .  S
Zr1372     O2984   2.427       .  S
Zr1372     O3010   2.362       .  S
O1373      H1381   0.965   1_545  S
O1374     Zr3003   2.404       .  S
O1375     Zr2977   2.373       .  S
O1376     Zr3000   2.398   1_455  S
O1376      H1380   0.961       .  S
O1377     Zr2977   2.356       .  S
O1377     Zr3003   2.367       .  S
O1377      H1382   0.965       .  S
O1378     Zr3000   2.342   1_455  S
O1378     Zr3004   2.363   1_455  S
H1392      O2979   0.990       .  S
H1394      O3002   0.990       .  S
C1395      C1397   1.537       .  S
C1395      C1399   1.548       .  S
C1395      C1398   1.551       .  S
C1395      C1444   1.573       .  S
C1396      C1400   1.534       .  S
C1396      C1402   1.555       .  S
C1396      C1401   1.541       .  S
C1396      C1456   1.585       .  S
C1397      C1405   1.375       .  A
C1397      C1400   1.400       .  A
C1398      C1409   1.392       .  A
C1398      C1401   1.419       .  A
C1399      C1413   1.382       .  A
C1399      C1402   1.411       .  A
C1400      C1403   1.374       .  A
C1401      C1407   1.369       .  A
C1402      C1410   1.381       .  A
C1403      N1404   1.362       .  A
C1403      H1416   1.082       .  S
N1404      C1405   1.360       .  A
N1404      C1525   1.441       .  S
C1405      H1406   1.082       .  S
C1407      N1408   1.343       .  A
C1407      H1417   1.081       .  S
N1408      C1409   1.353       .  A
N1408      C1501   1.430       .  S
C1409      H1415   1.082       .  S
C1410      N1411   1.359       .  A
C1410      H1412   1.081       .  S
N1411      C1413   1.357       .  A
N1411      C1516   1.438       .  S
C1413      H1414   1.082       .  S
C1418      C1420   1.538       .  S
C1418      C1422   1.549       .  S
C1418      C1421   1.556       .  S
C1418      C1453   1.579       .  S
C1419      C1423   1.534       .  S
C1419      C1425   1.544       .  S
C1419      C1424   1.548       .  S
C1419      C1441   1.576       .  S
C1420      C1428   1.375       .  A
C1420      C1423   1.400       .  A
C1421      C1432   1.386       .  A
C1421      C1424   1.410       .  A
C1422      C1436   1.386       .  A
C1422      C1425   1.417       .  A
C1423      C1426   1.376       .  A
C1424      C1430   1.378       .  A
C1425      C1433   1.377       .  A
C1426      N1427   1.359       .  A
C1426      H1439   1.083       .  S
N1427      C1428   1.361       .  A
N1427      C1492   1.442       .  S
C1428      H1429   1.081       .  S
C1430      N1431   1.357       .  A
C1430      H1440   1.081       .  S
N1431      C1432   1.361       .  A
N1431      C1468   1.440       .  S
C1432      H1438   1.081       .  S
C1433      N1434   1.348       .  A
C1433      H1435   1.082       .  S
N1434      C1436   1.348       .  A
N1434      C1480   1.425       .  S
C1436      H1437   1.082       .  S
C1441      C1442   1.416       .  A
C1441      C1446   1.418       .  A
C1442      C1443   1.420       .  A
C1442      H1447   1.080       .  S
C1443      C1444   1.417       .  A
C1443      O1448   1.374       .  S
C1444      C1445   1.416       .  A
C1445      C1446   1.423       .  A
C1445      H1449   1.080       .  S
C1446      O1450   1.374       .  S
O1448      H1452   0.992       .  S
O1450      H1451   0.992       .  S
C1454      C1455   1.427   1_554  A
C1455      C1456   1.415       .  A
C1455      O1460   1.374       .  S
C1456      C1457   1.421       .  A
C1457      C1458   1.421   1_556  A
C1457      H1461   1.080       .  S
C1458      O1462   1.373       .  S
O1460      H1464   0.992       .  S
O1462      H1463   0.992       .  S
C1465      C1466   1.412       .  A
C1465      C1470   1.415       .  A
C1466      C1467   1.401       .  A
C1466      H1471   1.083       .  S
C1467      C1468   1.403       .  A
C1467      O1472   1.371       .  S
C1468      C1469   1.404       .  A
C1469      C1470   1.408       .  A
C1469      H1473   1.083       .  S
C1470      O1474   1.371       .  S
O1472      H1476   0.992       .  S
O1474      H1475   0.991       .  S
C1477      C1478   1.406       .  A
C1477      C1482   1.413       .  A
C1478      C1479   1.398       .  A
C1478      H1483   1.083   1_565  S
C1479      C1480   1.403       .  A
C1479      O1484   1.371       .  S
C1480      C1481   1.396       .  A
C1481      C1482   1.396       .  A
C1481      H1485   1.083       .  S
C1482      O1486   1.372       .  S
O1484      H1488   0.992       .  S
O1486      H1487   0.992       .  S
C1489      C1490   1.405       .  A
C1489      C1494   1.411       .  A
C1490      C1491   1.399       .  A
C1490      H1495   1.084       .  S
C1491      C1492   1.410       .  A
C1491      O1496   1.372       .  S
C1492      C1493   1.406       .  A
C1493      C1494   1.403       .  A
C1493      H1497   1.083       .  S
C1494      O1498   1.372       .  S
O1496      H1500   0.992       .  S
O1498      H1499   0.992       .  S
C1501      C1502   1.401       .  A
C1501      C1506   1.402       .  A
C1502      C1503   1.392       .  A
C1502      H1507   1.083       .  S
C1503      C1504   1.413       .  A
C1503      O1508   1.372       .  S
C1504      C1505   1.411       .  A
C1505      C1506   1.398       .  A
C1505      H1509   1.083       .  S
C1506      O1510   1.371       .  S
O1508      H1512   0.992       .  S
O1510      H1511   0.992       .  S
C1513      C1514   1.408       .  A
C1513      C1518   1.414       .  A
C1514      C1515   1.403       .  A
C1514      H1519   1.084       .  S
C1515      C1516   1.404       .  A
C1515      O1520   1.371       .  S
C1516      C1517   1.402       .  A
C1517      C1518   1.403       .  A
C1517      H1521   1.083       .  S
O1520      H1524   0.992       .  S
O1522      H1523   0.992       .  S
C1525      C1526   1.406       .  A
C1525      C1530   1.409       .  A
C1526      C1527   1.401       .  A
C1526      H1531   1.083       .  S
C1527      C1528   1.407       .  A
C1527      O1532   1.372       .  S
C1528      C1529   1.401       .  A
C1529      C1530   1.402       .  A
C1529      H1533   1.082       .  S
C1530      O1534   1.372       .  S
O1532      H1536   0.992       .  S
O1534      H1535   0.992       .  S
C1537      C1538   1.406       .  A
C1537      C1542   1.409       .  A
C1538      C1539   1.406       .  A
C1538      H1543   1.082       .  S
C1539      C1540   1.414       .  A
C1539      O1544   1.371       .  S
C1540      C1541   1.405       .  A
C1541      C1542   1.398       .  A
C1541      H1545   1.083       .  S
C1542      O1546   1.372       .  S
O1544      H1548   0.992       .  S
O1546      H1547   0.992       .  S
C1549      C1550   1.410       .  A
C1549      C1554   1.420       .  A
C1550      C1551   1.406       .  A
C1550      H1555   1.083       .  S
C1551      C1552   1.405       .  A
C1551      O1556   1.370       .  S
C1552      C1553   1.400       .  A
C1553      C1554   1.404       .  A
C1553      H1557   1.083       .  S
C1554      O1558   1.372       .  S
O1556      H1560   0.992       .  S
O1558      H1559   0.992       .  S
C1561      C1562   1.399       .  A
C1561      C1566   1.403       .  A
C1562      C1563   1.397       .  A
C1562      H1567   1.084       .  S
C1563      C1564   1.411       .  A
C1563      O1568   1.372       .  S
C1564      C1565   1.407       .  A
C1565      C1566   1.402       .  A
C1565      H1569   1.084       .  S
C1566      O1570   1.370       .  S
O1568      H1572   0.992       .  S
O1570      H1571   0.992       .  S
C1573      C1574   1.401       .  A
C1573      C1578   1.410       .  A
C1574      C1575   1.396       .  A
C1574      H1579   1.083       .  S
C1575      C1576   1.417       .  A
C1575      O1580   1.372       .  S
C1576      C1577   1.412       .  A
C1577      C1578   1.409       .  A
C1577      H1581   1.083   1_556  S
C1578      O1582   1.372   1_556  S
O1580      H1584   0.992       .  S
O1582      H1583   0.992       .  S
C1585      C1590   1.401       .  A
C1586      C1587   1.398       .  A
C1586      H1591   1.083       .  S
C1587      O1592   1.371       .  S
C1588      C1589   1.412       .  A
C1589      C1590   1.400       .  A
C1589      H1593   1.083       .  S
C1590      O1594   1.371   1_556  S
O1592      H1596   0.992       .  S
O1594      H1595   0.992   1_554  S
C1597      C1602   1.405       .  A
C1598      C1599   1.401       .  A
C1598      H1603   1.083       .  S
C1599      O1604   1.372       .  S
C1600      C1601   1.407       .  A
C1601      C1602   1.402       .  A
C1601      H1605   1.082   1_554  S
C1602      O1606   1.372   1_554  S
O1604      H1608   0.991       .  S
O1606      H1607   0.992       .  S
C1609      C1610   1.418       .  A
C1609      C1614   1.419       .  A
C1610      C1611   1.426       .  A
C1610      H1615   1.079       .  S
C1611      C1612   1.420       .  A
C1611      O1616   1.376       .  S
C1612      C1613   1.414       .  A
C1613      C1614   1.423       .  A
C1613      H1617   1.077       .  S
C1614      O1618   1.374       .  S
O1616      H1620   0.992       .  S
O1618      H1619   0.992       .  S
C1621      C1622   1.415       .  A
C1621      C1626   1.420       .  A
C1622      C1623   1.419       .  A
C1622      H1627   1.080       .  S
C1623      C1624   1.417       .  A
C1623      O1628   1.373       .  S
C1624      C1625   1.417       .  A
C1625      C1626   1.426       .  A
C1625      H1629   1.080       .  S
C1626      O1630   1.374       .  S
O1628      H1632   0.992       .  S
O1630      H1631   0.992       .  S
C1633      C1635   1.547       .  S
C1633      C1637   1.555       .  S
C1633      C1636   1.551       .  S
C1633      C2032   1.577       .  S
C1634      C1638   1.540       .  S
C1634      C1640   1.533       .  S
C1634      C1639   1.548       .  S
C1634      C2017   1.579       .  S
C1635      C1643   1.383       .  A
C1635      C2046   1.401   1_554  A
C1636      C1647   1.384       .  A
C1636      C2047   1.410   1_554  A
C1637      C1651   1.393       .  A
C1637      C2048   1.415   1_554  A
C1638      C2043   1.401       .  A
C1638      C1641   1.374       .  A
C1639      C2044   1.410       .  A
C1639      C1645   1.377       .  A
C1640      C2045   1.414       .  A
C1640      C1648   1.369       .  A
C1641      N1642   1.360       .  A
C1641      H1654   1.081       .  S
N1642      C2051   1.362       .  A
N1642      C1981   1.445       .  S
C1643      N2050   1.361   1_554  A
C1643      H1644   1.082       .  S
C1645      N2054   1.355       .  A
C1645      H1655   1.081       .  S
N1646      C2053   1.356   1_554  A
N1646      C1647   1.358       .  A
N1646      C2413   1.436       .  S
C1647      H1653   1.082       .  S
C1648      N2057   1.348       .  A
C1648      H1650   1.083       .  S
N1649      C2056   1.348       .  A
N1649      C1651   1.357   1_556  A
N1649      C2401   1.436       .  S
C1651      H1652   1.081       .  S
C1656      C1658   1.536       .  S
C1656      C1660   1.542       .  S
C1656      C1659   1.546       .  S
C1656      C2029   1.581       .  S
C1657      C1661   1.555       .  S
C1657      C1663   1.551       .  S
C1657      C1662   1.552       .  S
C1657      C2020   1.581       .  S
C1658      C1666   1.377       .  A
C1658      C1661   1.409       .  A
C1659      C1670   1.377       .  A
C1659      C1662   1.408       .  A
C1660      C1674   1.372       .  A
C1660      C1663   1.408       .  A
C1661      C1664   1.383       .  A
C1662      C1668   1.387       .  A
C1663      C1671   1.386       .  A
C1664      N1665   1.358       .  A
C1664      H1677   1.081       .  S
N1665      C1666   1.357       .  A
N1665      C1948   1.441       .  S
C1666      H1667   1.082       .  S
C1668      N1669   1.362       .  A
C1668      H1678   1.082       .  S
N1669      C1670   1.359       .  A
N1669      C1960   1.444       .  S
C1670      H1676   1.081       .  S
C1671      N1672   1.355       .  A
C1671      H1673   1.079       .  S
N1672      C1674   1.351       .  A
N1672      C1969   1.429       .  S
C1674      H1675   1.082       .  S
O1679     Zr1691   2.444       .  S
O1679      C1681   1.284       .  A
O1680     Zr1717   2.405       .  S
O1680      C1681   1.280       .  A
C1681      C1936   1.467       .  S
O1682     Zr1694   2.444       .  S
O1682      C1684   1.288       .  A
O1683      C1684   1.284       .  A
C1684      C1912   1.484       .  S
O1685     Zr1694   2.427       .  S
O1685      C1687   1.285       .  A
O1686     Zr2533   2.435   1_545  S
O1686      C1687   1.289       .  A
C1687      C2008   1.485       .  S
O1688     Zr1691   2.408       .  S
O1689     Zr1718   2.378   1_455  S
O1689      C1690   1.265       .  A
C1690      C2582   1.436   1_445  S
Zr1691     O2508   2.438       .  S
Zr1691     O2513   2.345       .  S
Zr1691     O2514   2.387       .  S
O1692     Zr2507   2.434       .  S
O1692      H1735   0.990       .  S
O1693      H1734   0.990       .  S
Zr1694     O1695   2.436       .  S
Zr1694     O1696   2.437       .  S
Zr1694     O1698   2.341       .  S
Zr1694     O1697   2.393       .  S
Zr1694     O1722   2.347       .  S
Zr1694     O1724   2.383       .  S
O1695      H1736   0.990       .  S
O1695      H1739   0.990       .  S
O1696      H1729   0.990       .  S
O1697     Zr2507   2.343       .  S
O1697     Zr2533   2.372   1_545  S
O1698     Zr2507   2.389       .  S
O1698      H1725   0.964       .  S
O1699     Zr1711   2.440       .  S
O1699      C1701   1.288       .  A
O1700     Zr2534   2.439       .  S
O1700      C1701   1.288       .  A
C1701      C1921   1.488       .  S
O1702     Zr2122   2.433   1_564  S
O1702      C2520   1.271       .  A
O1703     Zr2125   2.397   1_554  S
C1704      O2518   1.269       .  A
C1704      C2568   1.416       .  S
O1705     Zr1714   2.457       .  S
O1705      C1707   1.289       .  A
O1706     Zr1718   2.409       .  S
O1706      C1707   1.282       .  A
C1707      C1984   1.497       .  S
O1708     Zr1711   2.452       .  S
O1708      C1710   1.289       .  A
O1709      C1710   1.285       .  A
C1710      C1996   1.491       .  S
Zr1711     O1712   2.441       .  S
Zr1711     O1713   2.433       .  S
Zr1711     O1719   2.405       .  S
Zr1711     O1720   2.318       .  S
Zr1711     O1723   2.395       .  S
Zr1711     O1721   2.258       .  S
O1712      H1732   0.990       .  S
O1712      H1737   0.990       .  S
O1713      H1733   0.990       .  S
Zr1714     O2110   2.428   1_545  S
Zr1714     O2939   2.431   1_545  S
Zr1714     O2536   2.384   1_545  S
Zr1714     O2535   2.366   1_545  S
O1715     Zr2938   2.426   1_554  S
O1715      H1731   0.990       .  S
O1716      H1730   0.989       .  S
Zr1717     O2502   2.444       .  S
Zr1717     O2111   2.392       .  S
Zr1717     O2513   2.375       .  S
Zr1717     O2538   2.435       .  S
Zr1718     O2516   2.439   1_545  S
Zr1718     O2535   2.377   1_545  S
Zr1718     O2537   2.299   1_545  S
O1719     Zr2530   2.367       .  S
O1719     Zr2534   2.375       .  S
O1719      H1727   0.965       .  S
O1720     Zr2530   2.378       .  S
O1721     Zr2534   2.302       .  S
O1722     Zr2533   2.437   1_545  S
O1722      H2134   0.960       .  S
O1723      H1728   0.966       .  S
H1726      O2130   0.960   1_554  S
O1741     Zr1753   2.430       .  S
O1741      C1743   1.285       .  A
O1742     Zr1779   2.412       .  S
O1742      C1743   1.282       .  A
C1743      C1897   1.476       .  S
O1744     Zr1756   2.446       .  S
O1744      C1746   1.291       .  A
O1745      C1746   1.291       .  A
C1746      C1873   1.500       .  S
O1747     Zr1756   2.443       .  S
O1747      C1749   1.289       .  A
O1748     Zr2595   2.429   1_545  S
O1748      C1749   1.286       .  A
C1749      C1972   1.483       .  S
O1750     Zr1753   2.353       .  S
O1751     Zr1780   2.386   1_565  S
O1751      C1752   1.265       .  A
C1752      C2520   1.415       .  S
Zr1753     O2570   2.430       .  S
Zr1753     O2575   2.342       .  S
Zr1753     O2576   2.421       .  S
O1754     Zr2569   2.431       .  S
O1754      H1797   0.990   1_565  S
O1755      H1796   0.990       .  S
Zr1756     O1757   2.435       .  S
Zr1756     O1758   2.436       .  S
Zr1756     O1760   2.345       .  S
Zr1756     O1759   2.382       .  S
Zr1756     O1784   2.349       .  S
Zr1756     O1786   2.382       .  S
O1757      H1798   0.990       .  S
O1757      H1801   0.990       .  S
O1758      H1791   0.990       .  S
O1759     Zr2569   2.346   1_545  S
O1759     Zr2595   2.382   1_545  S
O1760     Zr2569   2.419   1_545  S
O1760      H1787   0.969       .  S
O1761     Zr1773   2.435       .  S
O1761      C1763   1.287       .  A
O1762     Zr2596   2.429       .  S
O1762      C1763   1.289       .  A
C1763      C1885   1.480       .  S
O1764     Zr1776   2.399   1_565  S
O1764      C2582   1.267       .  A
O1765     Zr1779   2.377       .  S
C1766      O2580   1.267       .  A
C1766      C2506   1.435   1_655  S
O1767     Zr1776   2.442       .  S
O1767      C1769   1.286       .  A
O1768     Zr1780   2.422       .  S
O1768      C1769   1.285       .  A
C1769      C1945   1.479       .  S
O1770     Zr1773   2.444       .  S
O1770      C1772   1.288       .  A
O1771      C1772   1.291       .  A
C1772      C1957   1.501       .  S
Zr1773     O1774   2.435       .  S
Zr1773     O1775   2.435       .  S
Zr1773     O1781   2.403       .  S
Zr1773     O1782   2.332       .  S
Zr1773     O1785   2.396       .  S
Zr1773     O1783   2.323       .  S
O1774      H1794   0.990       .  S
O1774      H1799   0.990       .  S
O1775      H1795   0.990       .  S
Zr1776     O2593   2.429       .  S
Zr1776     O2598   2.394   1_545  S
Zr1776     O2597   2.363   1_545  S
O1777     Zr2592   2.432       .  S
O1777      H1793   0.990       .  S
O1778      H1792   0.990       .  S
Zr1779     O2564   2.429       .  S
Zr1779     O2575   2.384       .  S
Zr1779     O2600   2.432       .  S
Zr1780     O2578   2.419   1_545  S
Zr1780     O2597   2.383   1_545  S
Zr1780     O2599   2.397   1_545  S
O1781     Zr2592   2.363       .  S
O1781     Zr2596   2.384       .  S
O1781      H1789   0.965       .  S
O1782     Zr2592   2.395       .  S
O1783     Zr2596   2.399       .  S
O1784     Zr2595   2.439   1_545  S
O1784      H1788   0.961       .  S
O1785      H1790   0.965       .  S
C1803      C1805   1.537       .  S
C1803      C1807   1.547       .  S
C1803      C1806   1.550       .  S
C1803      C1852   1.577       .  S
C1804      C1808   1.531       .  S
C1804      C1810   1.555       .  S
C1804      C1809   1.541       .  S
C1804      C1864   1.584       .  S
C1805      C1813   1.373       .  A
C1805      C1808   1.399       .  A
C1806      C1817   1.391       .  A
C1806      C1809   1.422       .  A
C1807      C1821   1.381       .  A
C1807      C1810   1.412       .  A
C1808      C1811   1.374       .  A
C1809      C1815   1.371       .  A
C1810      C1818   1.380       .  A
C1811      N1812   1.360       .  A
C1811      H1824   1.082       .  S
N1812      C1813   1.359       .  A
N1812      C1933   1.438       .  S
C1813      H1814   1.082       .  S
C1815      N1816   1.343       .  A
C1815      H1825   1.081       .  S
N1816      C1817   1.352       .  A
N1816      C1909   1.432       .  S
C1817      H1823   1.082       .  S
C1818      N1819   1.359       .  A
C1818      H1820   1.081       .  S
N1819      C1821   1.357       .  A
N1819      C1924   1.437       .  S
C1821      H1822   1.082       .  S
C1826      C1828   1.535       .  S
C1826      C1830   1.549       .  S
C1826      C1829   1.554       .  S
C1826      C1861   1.574       .  S
C1827      C1831   1.534       .  S
C1827      C1833   1.544       .  S
C1827      C1832   1.552       .  S
C1827      C1849   1.579       .  S
C1828      C1836   1.374       .  A
C1828      C1831   1.402       .  A
C1829      C1840   1.387       .  A
C1829      C1832   1.410       .  A
C1830      C1844   1.385       .  A
C1830      C1833   1.415       .  A
C1831      C1834   1.374       .  A
C1832      C1838   1.379       .  A
C1833      C1841   1.376       .  A
C1834      N1835   1.359       .  A
C1834      H1847   1.083       .  S
N1835      C1836   1.359       .  A
N1835      C1900   1.440       .  S
C1836      H1837   1.081       .  S
C1838      N1839   1.358       .  A
C1838      H1848   1.081       .  S
N1839      C1840   1.361       .  A
N1839      C1876   1.443       .  S
C1840      H1846   1.081       .  S
C1841      N1842   1.348       .  A
C1841      H1843   1.082       .  S
N1842      C1844   1.349       .  A
N1842      C1888   1.425       .  S
C1844      H1845   1.082       .  S
C1849      C1850   1.417       .  A
C1849      C1854   1.418       .  A
C1850      C1851   1.421       .  A
C1850      H1855   1.080       .  S
C1851      C1852   1.417       .  A
C1851      O1856   1.373       .  S
C1852      C1853   1.418       .  A
C1853      C1854   1.425       .  A
C1853      H1857   1.080       .  S
C1854      O1858   1.374       .  S
O1856      H1860   0.992       .  S
O1858      H1859   0.992       .  S
C1861      C2270   1.419       .  A
C1861      C2274   1.414       .  A
C1862      C2269   1.421       .  A
C1862      C1863   1.427       .  A
C1862      H2275   1.080       .  S
C1863      C1864   1.415       .  A
C1863      O1868   1.374       .  S
C1864      C1865   1.421       .  A
C1865      C1866   1.422       .  A
C1865      H1869   1.081       .  S
C1866      C2269   1.414       .  A
C1866      O1870   1.373       .  S
H1867      C2270   1.079       .  S
O1868      H1872   0.992       .  S
O1870      H1871   0.992       .  S
C1873      C1874   1.411       .  A
C1873      C1878   1.417       .  A
C1874      C1875   1.399       .  A
C1874      H1879   1.083       .  S
C1875      C1876   1.403       .  A
C1875      O1880   1.371       .  S
C1876      C1877   1.406       .  A
C1877      C1878   1.412       .  A
C1877      H1881   1.083       .  S
C1878      O1882   1.372       .  S
O1880      H1884   0.992       .  S
O1882      H1883   0.992       .  S
C1885      C1886   1.407       .  A
C1885      C1890   1.413       .  A
C1886      C1887   1.400       .  A
C1886      H1891   1.082       .  S
C1887      C1888   1.403       .  A
C1887      O1892   1.371       .  S
C1888      C1889   1.396       .  A
C1889      C1890   1.396       .  A
C1889      H1893   1.083       .  S
C1890      O1894   1.372       .  S
O1892      H1896   0.992       .  S
O1894      H1895   0.992       .  S
C1897      C1898   1.404       .  A
C1897      C1902   1.409       .  A
C1898      C1899   1.398       .  A
C1898      H1903   1.084       .  S
C1899      C1900   1.410       .  A
C1899      O1904   1.372       .  S
C1900      C1901   1.405       .  A
C1901      C1902   1.399       .  A
C1901      H1905   1.083       .  S
C1902      O1906   1.372       .  S
O1904      H1908   0.992       .  S
O1906      H1907   0.992       .  S
C1909      C1910   1.401       .  A
C1909      C1914   1.402       .  A
C1910      C1911   1.392       .  A
C1910      H1915   1.083       .  S
C1911      C1912   1.413       .  A
C1911      O1916   1.372       .  S
C1912      C1913   1.411       .  A
C1913      C1914   1.399       .  A
C1913      H1917   1.083       .  S
C1914      O1918   1.371       .  S
O1916      H1920   0.992       .  S
O1918      H1919   0.992       .  S
C1921      C1922   1.408       .  A
C1921      C1926   1.415       .  A
C1922      C1923   1.403       .  A
C1922      H1927   1.084       .  S
C1923      C1924   1.404       .  A
C1923      O1928   1.371       .  S
C1924      C1925   1.401       .  A
C1925      C1926   1.403       .  A
C1925      H1929   1.083       .  S
C1926      O2746   1.372       .  S
O1928      H1932   0.992       .  S
O1930      C2742   1.371   1_545  S
O1930      H1931   0.991       .  S
C1933      C1934   1.405       .  A
C1933      C1938   1.410       .  A
C1934      C1935   1.397       .  A
C1934      H1939   1.083       .  S
C1935      C1936   1.404       .  A
C1935      O1940   1.372       .  S
C1936      C1937   1.401       .  A
C1937      C1938   1.402       .  A
C1937      H1941   1.081       .  S
C1938      O1942   1.372       .  S
O1940      H1944   0.992       .  S
O1942      H1943   0.992       .  S
C1945      C1946   1.405       .  A
C1945      C1950   1.409       .  A
C1946      C1947   1.404       .  A
C1946      H1951   1.083       .  S
C1947      C1948   1.410       .  A
C1947      O1952   1.371       .  S
C1948      C1949   1.404       .  A
C1949      C1950   1.398       .  A
C1949      H1953   1.083       .  S
C1950      O1954   1.372       .  S
O1952      H1956   0.992       .  S
O1954      H1955   0.992       .  S
C1957      C1958   1.411       .  A
C1957      C1962   1.418       .  A
C1958      C1959   1.409       .  A
C1958      H1963   1.083       .  S
C1959      C1960   1.408       .  A
C1959      O1964   1.371       .  S
C1960      C1961   1.401       .  A
C1961      C1962   1.402       .  A
C1961      H1965   1.083       .  S
C1962      O1966   1.372       .  S
O1964      H1968   0.992       .  S
O1966      H1967   0.992       .  S
C1969      C1970   1.399       .  A
C1969      C1974   1.403       .  A
C1970      C1971   1.396       .  A
C1970      H1975   1.084       .  S
C1971      C1972   1.411       .  A
C1971      O1976   1.372       .  S
C1972      C1973   1.410       .  A
C1973      C1974   1.403       .  A
C1973      H1977   1.083       .  S
C1974      O1978   1.371       .  S
O1976      H1980   0.992       .  S
O1978      H1979   0.992       .  S
C1981      C1982   1.403       .  A
C1981      C1986   1.410       .  A
C1982      C1983   1.396       .  A
C1982      H1987   1.083       .  S
C1983      C1984   1.417       .  A
C1983      O1988   1.372       .  S
C1984      C1985   1.411       .  A
C1985      C1986   1.407       .  A
C1985      H1989   1.083       .  S
C1986      O1990   1.371       .  S
O1988      H1992   0.992       .  S
O1990      H1991   0.992       .  S
C1993      C2402   1.401       .  A
C1993      C1998   1.403       .  A
C1993      N2057   1.434       .  S
C1994      C2401   1.401       .  A
C1994      C1995   1.399       .  A
C1994      H1999   1.083       .  S
C1995      C2404   1.416       .  A
C1995      O2000   1.372       .  S
C1996      C2403   1.415       .  A
C1996      C1997   1.412       .  A
C1997      C1998   1.402       .  A
C1997      H2001   1.083       .  S
C1998      O2002   1.372       .  S
O2000      H2004   0.992       .  S
O2002      H2003   0.992       .  S
C2005      C2414   1.399       .  A
C2005      C2010   1.405       .  A
C2005      N2054   1.433       .  S
C2006      C2413   1.399       .  A
C2006      C2007   1.402       .  A
C2006      H2011   1.083       .  S
C2007      C2416   1.416       .  A
C2007      O2012   1.372       .  S
C2008      C2415   1.415       .  A
C2008      C2009   1.406       .  A
C2009      C2010   1.401       .  A
C2009      H2013   1.082       .  S
C2010      O2014   1.371       .  S
O2012      H2016   0.991       .  S
O2014      H2015   0.992       .  S
C2017      C2018   1.417       .  A
C2017      C2022   1.420       .  A
C2018      C2019   1.425       .  A
C2018      H2023   1.079       .  S
C2019      C2020   1.421       .  A
C2019      O2024   1.375       .  S
C2020      C2021   1.413       .  A
C2021      C2022   1.421       .  A
C2021      H2025   1.077       .  S
C2022      O2026   1.373       .  S
O2024      H2028   0.992       .  S
O2026      H2027   0.992       .  S
C2029      C2030   1.417       .  A
C2029      C2034   1.419       .  A
C2030      C2031   1.419       .  A
C2030      H2035   1.081       .  S
C2031      C2032   1.417       .  A
C2031      O2036   1.373       .  S
C2032      C2033   1.418       .  A
C2033      C2034   1.427       .  A
C2033      H2037   1.079       .  S
C2034      O2038   1.373       .  S
O2036      H2040   0.992       .  S
O2038      H2039   0.992       .  S
C2041      C2043   1.545       .  S
C2041      C2045   1.551       .  S
C2041      C2044   1.550       .  S
C2041      C2440   1.576       .  S
C2042      C2046   1.543       .  S
C2042      C2048   1.534       .  S
C2042      C2047   1.551       .  S
C2042      C2425   1.579       .  S
C2043      C2051   1.381       .  A
C2044      C2055   1.382       .  A
C2045      C2059   1.390       .  A
C2046      C2049   1.378       .  A
C2047      C2053   1.380       .  A
C2048      C2056   1.370       .  A
C2049      N2050   1.361       .  A
C2049      H2062   1.081       .  S
N2050      C2389   1.447       .  S
C2051      H2052   1.082       .  S
C2053      H2063   1.081       .  S
N2054      C2055   1.357       .  A
C2055      H2061   1.082       .  S
C2056      H2058   1.083       .  S
N2057      C2059   1.357       .  A
C2059      H2060   1.081       .  S
C2064      C2066   1.539       .  S
C2064      C2068   1.547       .  S
C2064      C2067   1.546       .  S
C2064      C2437   1.579       .  S
C2065      C2069   1.556       .  S
C2065      C2071   1.550       .  S
C2065      C2070   1.548       .  S
C2065      C2428   1.579       .  S
C2066      C2074   1.378       .  A
C2066      C2069   1.407       .  A
C2067      C2078   1.378       .  A
C2067      C2070   1.407       .  A
C2068      C2082   1.377       .  A
C2068      C2071   1.407       .  A
C2069      C2072   1.384       .  A
C2070      C2076   1.384       .  A
C2071      C2079   1.386       .  A
C2072      N2073   1.360       .  A
C2072      H2085   1.080       .  S
N2073      C2074   1.359       .  A
N2073      C2356   1.446       .  S
C2074      H2075   1.081       .  S
C2076      N2077   1.359       .  A
C2076      H2086   1.082       .  S
N2077      C2078   1.358       .  A
N2077      C2368   1.439       .  S
C2078      H2084   1.081       .  S
C2079      N2080   1.356       .  A
C2079      H2081   1.080       .  S
N2080      C2082   1.353       .  A
N2080      C2377   1.433       .  S
C2082      H2083   1.082       .  S
O2087     Zr2099   2.454       .  S
O2087      C2089   1.286       .  A
O2088     Zr2125   2.411       .  S
O2088      C2089   1.281       .  A
C2089      C2344   1.474       .  S
O2090     Zr2102   2.441       .  S
O2090      C2092   1.287       .  A
O2091      C2092   1.283       .  A
C2092      C2320   1.482       .  S
O2093     Zr2102   2.425       .  S
O2093      C2095   1.285       .  A
O2094     Zr2941   2.445   1_545  S
O2094      C2095   1.291       .  A
C2095      C2416   1.488   1_556  S
O2096     Zr2099   2.410       .  S
O2097     Zr2126   2.377   1_455  S
O2097      C2098   1.265       .  A
C2098      C2990   1.438   1_455  S
Zr2099     O2916   2.434       .  S
Zr2099     O2921   2.346       .  S
Zr2099     O2922   2.393       .  S
O2100     Zr2915   2.437       .  S
O2100      H2143   0.990       .  S
O2101      H2142   0.990       .  S
Zr2102     O2103   2.437       .  S
Zr2102     O2104   2.437   1_556  S
Zr2102     O2106   2.345       .  S
Zr2102     O2105   2.392       .  S
Zr2102     O2130   2.349       .  S
Zr2102     O2132   2.383       .  S
O2103      H2144   0.990       .  S
O2103      H2147   0.990       .  S
O2104      H2137   0.990       .  S
O2105     Zr2915   2.347       .  S
O2105     Zr2941   2.375   1_545  S
O2106     Zr2915   2.390       .  S
O2106      H2133   0.965       .  S
O2107     Zr2119   2.443       .  S
O2107      C2109   1.288       .  A
O2108     Zr2942   2.446       .  S
O2108      C2109   1.290       .  A
C2109      C2329   1.490       .  S
O2110      C2928   1.270       .  A
C2112      O2926   1.271       .  A
C2112      C2976   1.418       .  S
O2113     Zr2122   2.464       .  S
O2113      C2115   1.290       .  A
O2114     Zr2126   2.414       .  S
O2114      C2115   1.283       .  A
C2115      C2392   1.501       .  S
O2116     Zr2119   2.447       .  S
O2116      C2118   1.288       .  A
O2117      C2118   1.285       .  A
C2118      C2404   1.493       .  S
Zr2119     O2120   2.436       .  S
Zr2119     O2121   2.435       .  S
Zr2119     O2127   2.410       .  S
Zr2119     O2128   2.321       .  S
Zr2119     O2131   2.400       .  S
Zr2119     O2129   2.323       .  S
O2120      H2140   0.990       .  S
O2120      H2145   0.990       .  S
O2121      H2141   0.990       .  S
Zr2122     O2531   2.424   1_546  S
Zr2122     O2944   2.381   1_545  S
Zr2122     O2943   2.365   1_545  S
O2123     Zr2530   2.431       .  S
O2123      H2139   0.990       .  S
O2124      H2138   0.989       .  S
Zr2125     O2910   2.448       .  S
Zr2125     O2921   2.377       .  S
Zr2125     O2946   2.440       .  S
Zr2126     O2924   2.444   1_545  S
Zr2126     O2943   2.375   1_545  S
Zr2126     O2945   2.300   1_545  S
O2127     Zr2938   2.360       .  S
O2127     Zr2942   2.376       .  S
O2127      H2135   0.965       .  S
O2128     Zr2938   2.379       .  S
O2129     Zr2942   2.391       .  S
O2130     Zr2941   2.434   1_545  S
O2131      H2136   0.966       .  S
O2149     Zr2161   2.434       .  S
O2149      C2151   1.285       .  A
O2150     Zr2187   2.416       .  S
O2150      C2151   1.283       .  A
C2151      C2305   1.481       .  S
O2152     Zr2164   2.457       .  S
O2152      C2154   1.293       .  A
O2153      C2154   1.292       .  A
C2154      C2281   1.505       .  S
O2155     Zr2164   2.455       .  S
O2155      C2157   1.291       .  A
O2156     Zr3003   2.437   1_545  S
O2156      C2157   1.289       .  A
C2157      C2380   1.486       .  S
O2158     Zr2161   2.361       .  S
O2159     Zr2188   2.390   1_565  S
O2159      C2160   1.266       .  A
C2160      C2928   1.419       .  S
Zr2161     O2978   2.432       .  S
Zr2161     O2983   2.343       .  S
Zr2161     O2984   2.419       .  S
O2162     Zr2977   2.429       .  S
O2162      H2205   0.990   1_565  S
O2163      H2204   0.990       .  S
Zr2164     O2165   2.436       .  S
Zr2164     O2166   2.436       .  S
Zr2164     O2168   2.352       .  S
Zr2164     O2167   2.385       .  S
Zr2164     O2192   2.349       .  S
Zr2164     O2194   2.379       .  S
O2165      H2206   0.990       .  S
O2165      H2209   0.990       .  S
O2166      H2199   0.990       .  S
O2167     Zr2977   2.343   1_545  S
O2167     Zr3003   2.383   1_545  S
O2168     Zr2977   2.414   1_545  S
O2168      H2195   0.968       .  S
O2169     Zr2181   2.434       .  S
O2169      C2171   1.287       .  A
O2170     Zr3004   2.414       .  S
O2170      C2171   1.286       .  A
C2171      C2293   1.473       .  S
O2172     Zr2184   2.394   1_565  S
O2172      C2990   1.266   1_565  A
O2173     Zr2187   2.381       .  S
C2174      O2988   1.266       .  A
C2174      C2914   1.440   1_655  S
O2175     Zr2184   2.449       .  S
O2175      C2177   1.288       .  A
O2176     Zr2188   2.426       .  S
O2176      C2177   1.285       .  A
C2177      C2353   1.486       .  S
O2178     Zr2181   2.443       .  S
O2178      C2180   1.288       .  A
O2179      C2180   1.290       .  A
C2180      C2365   1.499       .  S
Zr2181     O2182   2.437       .  S
Zr2181     O2183   2.433       .  S
Zr2181     O2189   2.396       .  S
Zr2181     O2190   2.328       .  S
Zr2181     O2193   2.394       .  S
Zr2181     O2191   2.330       .  S
O2182      H2202   0.990       .  S
O2182      H2207   0.990       .  S
O2183      H2203   0.990       .  S
Zr2184     O3001   2.431       .  S
Zr2184     O3006   2.400   1_545  S
Zr2184     O3005   2.361   1_545  S
O2185     Zr3000   2.433       .  S
O2185      H2201   0.990       .  S
O2186      H2200   0.990       .  S
Zr2187     O2972   2.431       .  S
Zr2187     O2983   2.380       .  S
Zr2187     O3008   2.431       .  S
Zr2188     O2986   2.420   1_545  S
Zr2188     O3005   2.380   1_545  S
Zr2188     O3007   2.393   1_545  S
O2189     Zr3000   2.359       .  S
O2189     Zr3004   2.379       .  S
O2189      H2197   0.965       .  S
O2190     Zr3000   2.398       .  S
O2191     Zr3004   2.390       .  S
O2192     Zr3003   2.437   1_545  S
O2192      H2196   0.960       .  S
O2193      H2198   0.966       .  S
C2211      C2213   1.539       .  S
C2211      C2215   1.551       .  S
C2211      C2214   1.550       .  S
C2211      C2260   1.579       .  S
C2212      C2216   1.530       .  S
C2212      C2218   1.553       .  S
C2212      C2217   1.539       .  S
C2212      C2272   1.581       .  S
C2213      C2221   1.375       .  A
C2213      C2216   1.400       .  A
C2214      C2225   1.389       .  A
C2214      C2217   1.421       .  A
C2215      C2229   1.383       .  A
C2215      C2218   1.411       .  A
C2216      C2219   1.373       .  A
C2217      C2223   1.370       .  A
C2218      C2226   1.380       .  A
C2219      N2220   1.360       .  A
C2219      H2232   1.082       .  S
N2220      C2221   1.360       .  A
N2220      C2341   1.439       .  S
C2221      H2222   1.082       .  S
C2223      N2224   1.342       .  A
C2223      H2233   1.081       .  S
N2224      C2225   1.352       .  A
N2224      C2317   1.429       .  S
C2225      H2231   1.082       .  S
C2226      N2227   1.358       .  A
C2226      H2228   1.081       .  S
N2227      C2229   1.358       .  A
N2227      C2332   1.439       .  S
C2229      H2230   1.081       .  S
C2234      C2236   1.536       .  S
C2234      C2238   1.549       .  S
C2234      C2237   1.557       .  S
C2234      C2269   1.580       .  S
C2235      C2239   1.535       .  S
C2235      C2241   1.545       .  S
C2235      C2240   1.552       .  S
C2235      C2257   1.582       .  S
C2236      C2244   1.373       .  A
C2236      C2239   1.401       .  A
C2237      C2248   1.388       .  A
C2237      C2240   1.411       .  A
C2238      C2252   1.386       .  A
C2238      C2241   1.418       .  A
C2239      C2242   1.376       .  A
C2240      C2246   1.380       .  A
C2241      C2249   1.377       .  A
C2242      N2243   1.360       .  A
C2242      H2255   1.082       .  S
N2243      C2244   1.360       .  A
N2243      C2308   1.442       .  S
C2244      H2245   1.081       .  S
C2246      N2247   1.359       .  A
C2246      H2256   1.081       .  S
N2247      C2248   1.362       .  A
N2247      C2284   1.446       .  S
C2248      H2254   1.081       .  S
C2249      N2250   1.347       .  A
C2249      H2251   1.082       .  S
N2250      C2252   1.349       .  A
N2250      C2296   1.424       .  S
C2252      H2253   1.082       .  S
C2257      C2258   1.417       .  A
C2257      C2262   1.419       .  A
C2258      C2259   1.422       .  A
C2258      H2263   1.080       .  S
C2259      C2260   1.417       .  A
C2259      O2264   1.373       .  S
C2260      C2261   1.419       .  A
C2261      C2262   1.426       .  A
C2261      H2265   1.080       .  S
C2262      O2266   1.374       .  S
O2264      H2268   0.992       .  S
O2266      H2267   0.992       .  S
C2270      C2271   1.423   1_554  A
C2271      C2272   1.414       .  A
C2271      O2276   1.374       .  S
C2272      C2273   1.421       .  A
C2273      C2274   1.421   1_556  A
C2273      H2277   1.081       .  S
C2274      O2278   1.374       .  S
O2276      H2280   0.992       .  S
O2278      H2279   0.992       .  S
C2281      C2282   1.411       .  A
C2281      C2286   1.418       .  A
C2282      C2283   1.402       .  A
C2282      H2287   1.083       .  S
C2283      C2284   1.404       .  A
C2283      O2288   1.371       .  S
C2284      C2285   1.405       .  A
C2285      C2286   1.412       .  A
C2285      H2289   1.083       .  S
C2286      O2290   1.371       .  S
O2288      H2292   0.992       .  S
O2290      H2291   0.991       .  S
C2293      C2294   1.405       .  A
C2293      C2298   1.411       .  A
C2294      C2295   1.397       .  A
C2294      H2299   1.082       .  S
C2295      C2296   1.403       .  A
C2295      O2300   1.371       .  S
C2296      C2297   1.397       .  A
C2297      C2298   1.397       .  A
C2297      H2301   1.083       .  S
C2298      O2302   1.372       .  S
O2300      H2304   0.992       .  S
O2302      H2303   0.992       .  S
C2305      C2306   1.405       .  A
C2305      C2310   1.410       .  A
C2306      C2307   1.399       .  A
C2306      H2311   1.084       .  S
C2307      C2308   1.411       .  A
C2307      O2312   1.372       .  S
C2308      C2309   1.405       .  A
C2309      C2310   1.401       .  A
C2309      H2313   1.083       .  S
C2310      O2314   1.372       .  S
O2312      H2316   0.992       .  S
O2314      H2315   0.992       .  S
C2317      C2318   1.400       .  A
C2317      C2322   1.401       .  A
C2318      C2319   1.392       .  A
C2318      H2323   1.084       .  S
C2319      C2320   1.414       .  A
C2319      O2324   1.372       .  S
C2320      C2321   1.411       .  A
C2321      C2322   1.398       .  A
C2321      H2325   1.083       .  S
C2322      O2326   1.371       .  S
O2324      H2328   0.992       .  S
O2326      H2327   0.992       .  S
C2329      C2330   1.409       .  A
C2329      C2334   1.414       .  A
C2330      C2331   1.405       .  A
C2330      H2335   1.084       .  S
C2331      C2332   1.404       .  A
C2331      O2336   1.371       .  S
C2332      C2333   1.402       .  A
C2333      C2334   1.403       .  A
C2333      H2337   1.083       .  S
C2334      O3154   1.371       .  S
O2336      H2340   0.992       .  S
O2338      C3150   1.372   1_545  S
O2338      H2339   0.991       .  S
C2341      C2342   1.405       .  A
C2341      C2346   1.409       .  A
C2342      C2343   1.400       .  A
C2342      H2347   1.083       .  S
C2343      C2344   1.406       .  A
C2343      O2348   1.372       .  S
C2344      C2345   1.402       .  A
C2345      C2346   1.402       .  A
C2345      H2349   1.080       .  S
C2346      O2350   1.372       .  S
O2348      H2352   0.992       .  S
O2350      H2351   0.992       .  S
C2353      C2354   1.406       .  A
C2353      C2358   1.410       .  A
C2354      C2355   1.406       .  A
C2354      H2359   1.083       .  S
C2355      C2356   1.412       .  A
C2355      O2360   1.371       .  S
C2356      C2357   1.405       .  A
C2357      C2358   1.400       .  A
C2357      H2361   1.083       .  S
C2358      O2362   1.372       .  S
O2360      H2364   0.992       .  S
O2362      H2363   0.992       .  S
C2365      C2366   1.411       .  A
C2365      C2370   1.418       .  A
C2366      C2367   1.406       .  A
C2366      H2371   1.083       .  S
C2367      C2368   1.406       .  A
C2367      O2372   1.371       .  S
C2368      C2369   1.399       .  A
C2369      C2370   1.402       .  A
C2369      H2373   1.083       .  S
C2370      O2374   1.372       .  S
O2372      H2376   0.992       .  S
O2374      H2375   0.992       .  S
C2377      C2378   1.400       .  A
C2377      C2382   1.404       .  A
C2378      C2379   1.401       .  A
C2378      H2383   1.083       .  S
C2379      C2380   1.411       .  A
C2379      O2384   1.372       .  S
C2380      C2381   1.408       .  A
C2381      C2382   1.404       .  A
C2381      H2385   1.084       .  S
C2382      O2386   1.371       .  S
O2384      H2388   0.992       .  S
O2386      H2387   0.992       .  S
C2389      C2390   1.402       .  A
C2389      C2394   1.410       .  A
C2390      C2391   1.398       .  A
C2390      H2395   1.083       .  S
C2391      C2392   1.418       .  A
C2391      O2396   1.372       .  S
C2392      C2393   1.412       .  A
C2393      C2394   1.410       .  A
C2393      H2397   1.083   1_556  S
C2394      O2398   1.371   1_556  S
O2396      H2400   0.992       .  S
O2398      H2399   0.992       .  S
C2401      C2406   1.403       .  A
C2402      C2403   1.397       .  A
C2402      H2407   1.083       .  S
C2403      O2408   1.371       .  S
C2404      C2405   1.412       .  A
C2405      C2406   1.402       .  A
C2405      H2409   1.083       .  S
C2406      O2410   1.371   1_556  S
O2408      H2412   0.992       .  S
O2410      H2411   0.992   1_554  S
C2413      C2418   1.405       .  A
C2414      C2415   1.400       .  A
C2414      H2419   1.083       .  S
C2415      O2420   1.372       .  S
C2416      C2417   1.406       .  A
C2417      C2418   1.403       .  A
C2417      H2421   1.082   1_554  S
C2418      O2422   1.371       .  S
O2420      H2424   0.991       .  S
O2422      H2423   0.992   1_554  S
C2425      C2426   1.417       .  A
C2425      C2430   1.420       .  A
C2426      C2427   1.426       .  A
C2426      H2431   1.079       .  S
C2427      C2428   1.421       .  A
C2427      O2432   1.375       .  S
C2428      C2429   1.413       .  A
C2429      C2430   1.421       .  A
C2429      H2433   1.077       .  S
C2430      O2434   1.374       .  S
O2432      H2436   0.992       .  S
O2434      H2435   0.992       .  S
C2437      C2438   1.415       .  A
C2437      C2442   1.421       .  A
C2438      C2439   1.418       .  A
C2438      H2443   1.081       .  S
C2439      C2440   1.417       .  A
C2439      O2444   1.373       .  S
C2440      C2441   1.417       .  A
C2441      C2442   1.427       .  A
C2441      H2445   1.079       .  S
C2442      O2446   1.374       .  S
O2444      H2448   0.992       .  S
O2446      H2447   0.992       .  S
C2449      C2451   1.545       .  S
C2449      C2453   1.553       .  S
C2449      C2452   1.549       .  S
C2449      C2848   1.573       .  S
C2450      C2454   1.540       .  S
C2450      C2456   1.532       .  S
C2450      C2455   1.551       .  S
C2450      C2833   1.581       .  S
C2451      C2459   1.382       .  A
C2451      C2862   1.400   1_554  A
C2452      C2463   1.384       .  A
C2452      C2863   1.408   1_554  A
C2453      C2467   1.392       .  A
C2453      C2864   1.417   1_554  A
C2454      C2859   1.402       .  A
C2454      C2457   1.374       .  A
C2455      C2860   1.408       .  A
C2455      C2461   1.379       .  A
C2456      C2861   1.414       .  A
C2456      C2464   1.366       .  A
C2457      N2458   1.361       .  A
C2457      H2470   1.081       .  S
N2458      C2867   1.362       .  A
N2458      C2797   1.447       .  S
C2459      N2866   1.362   1_554  A
C2459      H2460   1.082       .  S
C2461      N2870   1.356       .  A
C2461      H2471   1.081       .  S
N2462      C2869   1.356   1_554  A
N2462      C2463   1.358       .  A
N2462      C3229   1.436       .  S
C2463      H2469   1.082       .  S
C2464      N2873   1.348       .  A
C2464      H2466   1.083       .  S
N2465      C2872   1.348       .  A
N2465      C2467   1.357   1_556  A
N2465      C3217   1.436       .  S
C2467      H2468   1.082       .  S
C2472      C2474   1.533       .  S
C2472      C2476   1.542       .  S
C2472      C2475   1.546       .  S
C2472      C2845   1.576       .  S
C2473      C2477   1.554       .  S
C2473      C2479   1.553       .  S
C2473      C2478   1.548       .  S
C2473      C2836   1.579       .  S
C2474      C2482   1.375       .  A
C2474      C2477   1.406       .  A
C2475      C2486   1.377       .  A
C2475      C2478   1.407       .  A
C2476      C2490   1.372       .  A
C2476      C2479   1.407       .  A
C2477      C2480   1.381       .  A
C2478      C2484   1.385       .  A
C2479      C2487   1.386       .  A
C2480      N2481   1.360       .  A
C2480      H2493   1.081       .  S
N2481      C2482   1.357       .  A
N2481      C2764   1.441       .  S
C2482      H2483   1.082       .  S
C2484      N2485   1.359       .  A
C2484      H2494   1.082       .  S
N2485      C2486   1.358       .  A
N2485      C2776   1.440       .  S
C2486      H2492   1.081       .  S
C2487      N2488   1.358       .  A
C2487      H2489   1.080       .  S
N2488      C2490   1.351       .  A
N2488      C2785   1.430       .  S
C2490      H2491   1.082       .  S
O2495     Zr2507   2.452   1_565  S
O2495      C2497   1.285       .  A
O2496     Zr2533   2.415       .  S
O2496      C2497   1.281       .  A
C2497      C2752   1.475       .  S
O2498     Zr2510   2.442       .  S
O2498      C2500   1.288       .  A
O2499      C2500   1.283       .  A
C2500      C2728   1.483       .  S
O2501     Zr2510   2.431       .  S
O2501      C2503   1.286       .  A
O2502      C2503   1.291       .  A
C2503      C2824   1.488       .  S
O2504     Zr2507   2.410       .  S
O2505     Zr2534   2.373   1_455  S
O2505      C2506   1.263       .  A
O2508      H2551   0.990       .  S
O2509      H2550   0.990       .  S
Zr2510     O2511   2.439       .  S
Zr2510     O2512   2.437       .  S
Zr2510     O2514   2.343       .  S
Zr2510     O2513   2.389       .  S
Zr2510     O2538   2.352       .  S
Zr2510     O2540   2.388       .  S
O2511      H2552   0.990       .  S
O2511      H2555   0.990       .  S
O2512      H2545   0.990       .  S
O2514      H2541   0.965       .  S
O2515     Zr2527   2.438       .  S
O2515      C2517   1.286       .  A
O2516      C2517   1.288       .  A
C2517      C2737   1.486       .  S
O2518     Zr2938   2.430   1_554  S
O2519     Zr2941   2.396   1_554  S
O2521     Zr2530   2.462       .  S
O2521      C2523   1.290       .  A
O2522     Zr2534   2.408       .  S
O2522      C2523   1.282       .  A
C2523      C2800   1.498       .  S
O2524     Zr2527   2.455       .  S
O2524      C2526   1.290       .  A
O2525      C2526   1.283       .  A
C2526      C2812   1.489       .  S
Zr2527     O2528   2.441       .  S
Zr2527     O2529   2.435       .  S
Zr2527     O2535   2.408       .  S
Zr2527     O2536   2.332       .  S
Zr2527     O2539   2.388       .  S
Zr2527     O2537   2.253       .  S
O2528      H2548   0.990       .  S
O2528      H2553   0.991       .  S
O2529      H2549   0.990       .  S
Zr2530     O2926   2.430       .  S
O2531      H2547   0.990       .  S
O2532      H2546   0.989       .  S
Zr2533     O2927   2.394       .  S
O2535      H2543   0.965       .  S
O2538      H2950   0.961       .  S
O2539      H2544   0.966       .  S
H2542      O2946   0.960   1_554  S
O2557     Zr2569   2.428       .  S
O2557      C2559   1.285       .  A
O2558     Zr2595   2.423       .  S
O2558      C2559   1.284       .  A
C2559      C2713   1.482       .  S
O2560     Zr2572   2.447       .  S
O2560      C2562   1.291       .  A
O2561      C2562   1.294       .  A
C2562      C2689   1.504       .  S
O2563     Zr2572   2.440       .  S
O2563      C2565   1.288       .  A
O2564      C2565   1.286       .  A
C2565      C2788   1.482       .  S
O2566     Zr2569   2.358   1_545  S
O2567     Zr2596   2.386       .  S
O2567      C2568   1.264       .  A
O2570      H2613   0.990       .  S
O2571      H2612   0.990       .  S
Zr2572     O2573   2.436       .  S
Zr2572     O2574   2.437       .  S
Zr2572     O2576   2.346       .  S
Zr2572     O2575   2.383       .  S
Zr2572     O2600   2.343       .  S
Zr2572     O2602   2.381       .  S
O2573      H2614   0.990       .  S
O2573      H2617   0.990       .  S
O2574      H2607   0.990       .  S
O2576      H2603   0.969       .  S
O2577     Zr2589   2.438       .  S
O2577      C2579   1.288       .  A
O2578      C2579   1.288       .  A
C2579      C2701   1.477       .  S
O2580     Zr2592   2.403       .  S
O2581     Zr2595   2.379       .  S
O2583     Zr2592   2.445       .  S
O2583      C2585   1.287       .  A
O2584     Zr2596   2.421       .  S
O2584      C2585   1.285       .  A
C2585      C2761   1.480       .  S
O2586     Zr2589   2.453       .  S
O2586      C2588   1.290       .  A
O2587      C2588   1.288       .  A
C2588      C2773   1.500       .  S
Zr2589     O2590   2.436       .  S
Zr2589     O2591   2.434       .  S
Zr2589     O2597   2.400       .  S
Zr2589     O2598   2.332       .  S
Zr2589     O2601   2.393       .  S
Zr2589     O2599   2.331       .  S
O2590      H2610   0.990       .  S
O2590      H2615   0.990       .  S
O2591      H2611   0.990       .  S
O2593      H2609   0.990       .  S
O2594      H2608   0.990       .  S
O2597      H2605   0.965       .  S
O2600      H2604   0.960       .  S
O2601      H2606   0.966       .  S
C2619      C2621   1.539       .  S
C2619      C2623   1.548       .  S
C2619      C2622   1.552       .  S
C2619      C2668   1.580       .  S
C2620      C2624   1.530       .  S
C2620      C2626   1.555       .  S
C2620      C2625   1.540       .  S
C2620      C2680   1.585       .  S
C2621      C2629   1.374       .  A
C2621      C2624   1.399       .  A
C2622      C2633   1.392       .  A
C2622      C2625   1.420       .  A
C2623      C2637   1.381       .  A
C2623      C2626   1.412       .  A
C2624      C2627   1.373       .  A
C2625      C2631   1.368       .  A
C2626      C2634   1.380       .  A
C2627      N2628   1.361       .  A
C2627      H2640   1.081       .  S
N2628      C2629   1.361       .  A
N2628      C2749   1.442       .  S
C2629      H2630   1.082       .  S
C2631      N2632   1.344       .  A
C2631      H2641   1.081       .  S
N2632      C2633   1.354       .  A
N2632      C2725   1.433       .  S
C2633      H2639   1.082       .  S
C2634      N2635   1.358       .  A
C2634      H2636   1.081       .  S
N2635      C2637   1.356       .  A
N2635      C2740   1.436       .  S
C2637      H2638   1.081       .  S
C2642      C2644   1.535       .  S
C2642      C2646   1.548       .  S
C2642      C2645   1.555       .  S
C2642      C2677   1.577       .  S
C2643      C2647   1.537       .  S
C2643      C2649   1.544       .  S
C2643      C2648   1.552       .  S
C2643      C2665   1.582       .  S
C2644      C2652   1.372       .  A
C2644      C2647   1.399       .  A
C2645      C2656   1.387       .  A
C2645      C2648   1.411       .  A
C2646      C2660   1.386       .  A
C2646      C2649   1.418       .  A
C2647      C2650   1.377       .  A
C2648      C2654   1.378       .  A
C2649      C2657   1.377       .  A
C2650      N2651   1.362       .  A
C2650      H2663   1.082       .  S
N2651      C2652   1.361       .  A
N2651      C2716   1.444       .  S
C2652      H2653   1.081       .  S
C2654      N2655   1.358       .  A
C2654      H2664   1.081       .  S
N2655      C2656   1.362       .  A
N2655      C2692   1.444       .  S
C2656      H2662   1.081       .  S
C2657      N2658   1.348       .  A
C2657      H2659   1.082       .  S
N2658      C2660   1.348       .  A
N2658      C2704   1.425       .  S
C2660      H2661   1.082       .  S
C2665      C2666   1.418       .  A
C2665      C2670   1.418       .  A
C2666      C2667   1.424       .  A
C2666      H2671   1.080       .  S
C2667      C2668   1.418       .  A
C2667      O2672   1.373       .  S
C2668      C2669   1.418       .  A
C2669      C2670   1.425       .  A
C2669      H2673   1.080       .  S
C2670      O2674   1.374       .  S
O2672      H2676   0.992       .  S
O2674      H2675   0.992       .  S
C2677      C3086   1.421       .  A
C2677      C3090   1.414       .  A
C2678      C3085   1.421       .  A
C2678      C2679   1.425       .  A
C2678      H3091   1.080       .  S
C2679      C2680   1.415       .  A
C2679      O2684   1.374       .  S
C2680      C2681   1.422       .  A
C2681      C2682   1.422       .  A
C2681      H2685   1.081       .  S
C2682      C3085   1.414       .  A
C2682      O2686   1.373       .  S
H2683      C3086   1.080       .  S
O2684      H2688   0.992       .  S
O2686      H2687   0.992       .  S
C2689      C2690   1.413       .  A
C2689      C2694   1.417       .  A
C2690      C2691   1.402       .  A
C2690      H2695   1.083       .  S
C2691      C2692   1.405       .  A
C2691      O2696   1.371       .  S
C2692      C2693   1.404       .  A
C2693      C2694   1.410       .  A
C2693      H2697   1.083       .  S
C2694      O2698   1.371       .  S
O2696      H2700   0.992       .  S
O2698      H2699   0.991       .  S
C2701      C2702   1.406       .  A
C2701      C2706   1.413       .  A
C2702      C2703   1.397       .  A
C2702      H2707   1.083       .  S
C2703      C2704   1.402       .  A
C2703      O2708   1.371       .  S
C2704      C2705   1.397       .  A
C2705      C2706   1.398       .  A
C2705      H2709   1.083       .  S
C2706      O2710   1.372       .  S
O2708      H2712   0.992       .  S
O2710      H2711   0.992       .  S
C2713      C2714   1.404       .  A
C2713      C2718   1.410       .  A
C2714      C2715   1.397       .  A
C2714      H2719   1.084       .  S
C2715      C2716   1.412       .  A
C2715      O2720   1.372       .  S
C2716      C2717   1.407       .  A
C2717      C2718   1.403       .  A
C2717      H2721   1.083       .  S
C2718      O2722   1.372       .  S
O2720      H2724   0.992       .  S
O2722      H2723   0.992       .  S
C2725      C2726   1.402       .  A
C2725      C2730   1.403       .  A
C2726      C2727   1.390       .  A
C2726      H2731   1.083       .  S
C2727      C2728   1.412       .  A
C2727      O2732   1.372       .  S
C2728      C2729   1.412       .  A
C2729      C2730   1.401       .  A
C2729      H2733   1.083       .  S
C2730      O2734   1.371       .  S
O2732      H2736   0.992       .  S
O2734      H2735   0.992       .  S
C2737      C2738   1.408       .  A
C2737      C2742   1.414       .  A
C2738      C2739   1.402       .  A
C2738      H2743   1.084       .  S
C2739      C2740   1.403       .  A
C2739      O2744   1.371       .  S
C2740      C2741   1.402       .  A
C2741      C2742   1.403       .  A
C2741      H2745   1.083       .  S
O2744      H2748   0.992       .  S
O2746      H2747   0.992       .  S
C2749      C2750   1.406       .  A
C2749      C2754   1.411       .  A
C2750      C2751   1.399       .  A
C2750      H2755   1.082       .  S
C2751      C2752   1.406       .  A
C2751      O2756   1.371       .  S
C2752      C2753   1.402       .  A
C2753      C2754   1.403       .  A
C2753      H2757   1.080       .  S
C2754      O2758   1.372       .  S
O2756      H2760   0.992       .  S
O2758      H2759   0.992       .  S
C2761      C2762   1.405       .  A
C2761      C2766   1.409       .  A
C2762      C2763   1.404       .  A
C2762      H2767   1.082       .  S
C2763      C2764   1.411       .  A
C2763      O2768   1.372       .  S
C2764      C2765   1.404       .  A
C2765      C2766   1.398       .  A
C2765      H2769   1.083       .  S
C2766      O2770   1.372       .  S
O2768      H2772   0.992       .  S
O2770      H2771   0.992       .  S
C2773      C2774   1.413       .  A
C2773      C2778   1.417       .  A
C2774      C2775   1.407       .  A
C2774      H2779   1.083       .  S
C2775      C2776   1.406       .  A
C2775      O2780   1.371       .  S
C2776      C2777   1.399       .  A
C2777      C2778   1.401       .  A
C2777      H2781   1.083       .  S
C2778      O2782   1.372       .  S
O2780      H2784   0.992       .  S
O2782      H2783   0.992       .  S
C2785      C2786   1.398       .  A
C2785      C2790   1.405       .  A
C2786      C2787   1.395       .  A
C2786      H2791   1.084       .  S
C2787      C2788   1.411       .  A
C2787      O2792   1.372       .  S
C2788      C2789   1.409       .  A
C2789      C2790   1.404       .  A
C2789      H2793   1.084       .  S
C2790      O2794   1.371       .  S
O2792      H2796   0.992       .  S
O2794      H2795   0.992       .  S
C2797      C2798   1.403       .  A
C2797      C2802   1.411       .  A
C2798      C2799   1.396       .  A
C2798      H2803   1.083       .  S
C2799      C2800   1.417       .  A
C2799      O2804   1.372       .  S
C2800      C2801   1.411       .  A
C2801      C2802   1.408       .  A
C2801      H2805   1.083       .  S
C2802      O2806   1.371       .  S
O2804      H2808   0.992       .  S
O2806      H2807   0.992       .  S
C2809      C3218   1.402       .  A
C2809      C2814   1.403       .  A
C2809      N2873   1.435       .  S
C2810      C3217   1.403       .  A
C2810      C2811   1.399       .  A
C2810      H2815   1.083       .  S
C2811      C3220   1.414       .  A
C2811      O2816   1.371       .  S
C2812      C3219   1.413       .  A
C2812      C2813   1.413       .  A
C2813      C2814   1.400       .  A
C2813      H2817   1.083       .  S
C2814      O2818   1.372       .  S
O2816      H2820   0.992       .  S
O2818      H2819   0.992       .  S
C2821      C3230   1.400       .  A
C2821      C2826   1.405       .  A
C2821      N2870   1.435       .  S
C2822      C3229   1.399       .  A
C2822      C2823   1.403       .  A
C2822      H2827   1.083       .  S
C2823      C3232   1.416       .  A
C2823      O2828   1.372       .  S
C2824      C3231   1.416       .  A
C2824      C2825   1.406       .  A
C2825      C2826   1.403       .  A
C2825      H2829   1.082       .  S
C2826      O2830   1.371       .  S
O2828      H2832   0.991       .  S
O2830      H2831   0.992       .  S
C2833      C2834   1.417       .  A
C2833      C2838   1.420       .  A
C2834      C2835   1.425       .  A
C2834      H2839   1.079       .  S
C2835      C2836   1.420       .  A
C2835      O2840   1.375       .  S
C2836      C2837   1.414       .  A
C2837      C2838   1.422       .  A
C2837      H2841   1.078       .  S
C2838      O2842   1.374       .  S
O2840      H2844   0.992       .  S
O2842      H2843   0.992       .  S
C2845      C2846   1.415       .  A
C2845      C2850   1.420       .  A
C2846      C2847   1.417       .  A
C2846      H2851   1.081       .  S
C2847      C2848   1.417       .  A
C2847      O2852   1.373       .  S
C2848      C2849   1.416       .  A
C2849      C2850   1.426       .  A
C2849      H2853   1.079       .  S
C2850      O2854   1.374       .  S
O2852      H2856   0.992       .  S
O2854      H2855   0.992       .  S
C2857      C2859   1.548       .  S
C2857      C2861   1.556       .  S
C2857      C2860   1.547       .  S
C2857      C3256   1.575       .  S
C2858      C2862   1.542       .  S
C2858      C2864   1.535       .  S
C2858      C2863   1.549       .  S
C2858      C3241   1.582       .  S
C2859      C2867   1.382       .  A
C2860      C2871   1.383       .  A
C2861      C2875   1.393       .  A
C2862      C2865   1.374       .  A
C2863      C2869   1.378       .  A
C2864      C2872   1.369       .  A
C2865      N2866   1.361       .  A
C2865      H2878   1.081       .  S
N2866      C3205   1.447       .  S
C2867      H2868   1.082       .  S
C2869      H2879   1.081       .  S
N2870      C2871   1.357       .  A
C2871      H2877   1.082       .  S
C2872      H2874   1.083       .  S
N2873      C2875   1.358       .  A
C2875      H2876   1.081       .  S
C2880      C2882   1.536       .  S
C2880      C2884   1.542       .  S
C2880      C2883   1.544       .  S
C2880      C3253   1.578       .  S
C2881      C2885   1.559       .  S
C2881      C2887   1.554       .  S
C2881      C2886   1.549       .  S
C2881      C3244   1.583       .  S
C2882      C2890   1.378       .  A
C2882      C2885   1.406       .  A
C2883      C2894   1.377       .  A
C2883      C2886   1.408       .  A
C2884      C2898   1.374       .  A
C2884      C2887   1.409       .  A
C2885      C2888   1.385       .  A
C2886      C2892   1.384       .  A
C2887      C2895   1.387       .  A
C2888      N2889   1.361       .  A
C2888      H2901   1.080       .  S
N2889      C2890   1.359       .  A
N2889      C3172   1.448       .  S
C2890      H2891   1.081       .  S
C2892      N2893   1.359       .  A
C2892      H2902   1.082       .  S
N2893      C2894   1.357       .  A
N2893      C3184   1.438       .  S
C2894      H2900   1.081       .  S
C2895      N2896   1.358       .  A
C2895      H2897   1.080       .  S
N2896      C2898   1.352       .  A
N2896      C3193   1.432       .  S
C2898      H2899   1.082       .  S
O2903     Zr2915   2.448   1_565  S
O2903      C2905   1.285       .  A
O2904     Zr2941   2.411       .  S
O2904      C2905   1.281       .  A
C2905      C3160   1.473       .  S
O2906     Zr2918   2.456       .  S
O2906      C2908   1.290       .  A
O2907      C2908   1.285       .  A
C2908      C3136   1.491       .  S
O2909     Zr2918   2.442       .  S
O2909      C2911   1.288       .  A
O2910      C2911   1.291       .  A
C2911      C3232   1.493   1_556  S
O2912     Zr2915   2.411       .  S
O2913     Zr2942   2.383   1_455  S
O2913      C2914   1.267       .  A
O2916      H2959   0.990       .  S
O2917      H2958   0.990       .  S
Zr2918     O2919   2.437       .  S
Zr2918     O2920   2.437   1_556  S
Zr2918     O2922   2.347       .  S
Zr2918     O2921   2.395       .  S
Zr2918     O2946   2.352       .  S
Zr2918     O2948   2.385       .  S
O2919      H2960   0.990       .  S
O2919      H2963   0.990       .  S
O2920      H2953   0.990       .  S
O2922      H2949   0.964       .  S
O2923     Zr2935   2.434       .  S
O2923      C2925   1.286       .  A
O2924      C2925   1.289       .  A
C2925      C3145   1.487       .  S
O2929     Zr2938   2.462       .  S
O2929      C2931   1.290       .  A
O2930     Zr2942   2.407       .  S
O2930      C2931   1.282       .  A
C2931      C3208   1.497       .  S
O2932     Zr2935   2.460       .  S
O2932      C2934   1.291       .  A
O2933      C2934   1.284       .  A
C2934      C3220   1.493       .  S
Zr2935     O2936   2.441       .  S
Zr2935     O2937   2.433       .  S
Zr2935     O2943   2.409       .  S
Zr2935     O2944   2.321       .  S
Zr2935     O2947   2.390       .  S
Zr2935     O2945   2.257       .  S
O2936      H2956   0.990       .  S
O2936      H2961   0.990       .  S
O2937      H2957   0.990       .  S
O2939      H2955   0.990       .  S
O2940      H2954   0.989       .  S
O2943      H2951   0.965       .  S
O2947      H2952   0.966       .  S
O2965     Zr2977   2.424       .  S
O2965      C2967   1.284       .  A
O2966     Zr3003   2.425       .  S
O2966      C2967   1.285       .  A
C2967      C3121   1.483       .  S
O2968     Zr2980   2.450       .  S
O2968      C2970   1.292       .  A
O2969      C2970   1.292       .  A
C2970      C3097   1.503       .  S
O2971     Zr2980   2.454       .  S
O2971      C2973   1.291       .  A
O2972      C2973   1.287       .  A
C2973      C3196   1.483       .  S
O2974     Zr2977   2.355       .  S
O2975     Zr3004   2.394       .  S
O2975      C2976   1.267       .  A
O2978      H3021   0.990       .  S
O2979      H3020   0.990       .  S
Zr2980     O2981   2.435       .  S
Zr2980     O2982   2.436       .  S
Zr2980     O2984   2.348       .  S
Zr2980     O2983   2.381       .  S
Zr2980     O3008   2.343       .  S
Zr2980     O3010   2.381       .  S
O2981      H3022   0.990       .  S
O2981      H3025   0.990       .  S
O2982      H3015   0.990       .  S
O2984      H3011   0.968       .  S
O2985     Zr2997   2.434       .  S
O2985      C2987   1.287       .  A
O2986      C2987   1.287       .  A
C2987      C3109   1.476       .  S
O2988     Zr3000   2.392       .  S
O2989     Zr3003   2.382       .  S
O2991     Zr3000   2.452       .  S
O2991      C2993   1.289       .  A
O2992     Zr3004   2.419       .  S
O2992      C2993   1.284       .  A
C2993      C3169   1.485       .  S
O2994     Zr2997   2.443       .  S
O2994      C2996   1.288       .  A
O2995      C2996   1.289       .  A
C2996      C3181   1.497       .  S
Zr2997     O2998   2.436       .  S
Zr2997     O2999   2.434       .  S
Zr2997     O3005   2.397       .  S
Zr2997     O3006   2.337       .  S
Zr2997     O3009   2.393       .  S
Zr2997     O3007   2.328       .  S
O2998      H3018   0.990       .  S
O2998      H3023   0.990       .  S
O2999      H3019   0.990       .  S
O3001      H3017   0.990       .  S
O3002      H3016   0.990       .  S
O3005      H3013   0.965       .  S
O3008      H3012   0.960       .  S
O3009      H3014   0.966       .  S
C3027      C3029   1.540       .  S
C3027      C3031   1.549       .  S
C3027      C3030   1.552       .  S
C3027      C3076   1.576       .  S
C3028      C3032   1.532       .  S
C3028      C3034   1.553       .  S
C3028      C3033   1.540       .  S
C3028      C3088   1.580       .  S
C3029      C3037   1.376       .  A
C3029      C3032   1.399       .  A
C3030      C3041   1.392       .  A
C3030      C3033   1.418       .  A
C3031      C3045   1.381       .  A
C3031      C3034   1.412       .  A
C3032      C3035   1.373       .  A
C3033      C3039   1.373       .  A
C3034      C3042   1.380       .  A
C3035      N3036   1.361       .  A
C3035      H3048   1.081       .  S
N3036      C3037   1.362       .  A
N3036      C3157   1.443       .  S
C3037      H3038   1.082       .  S
C3039      N3040   1.344       .  A
C3039      H3049   1.082       .  S
N3040      C3041   1.353       .  A
N3040      C3133   1.433       .  S
C3041      H3047   1.082       .  S
C3042      N3043   1.358       .  A
C3042      H3044   1.081       .  S
N3043      C3045   1.356       .  A
N3043      C3148   1.435       .  S
C3045      H3046   1.081       .  S
C3050      C3052   1.537       .  S
C3050      C3054   1.549       .  S
C3050      C3053   1.556       .  S
C3050      C3085   1.579       .  S
C3051      C3055   1.535       .  S
C3051      C3057   1.542       .  S
C3051      C3056   1.553       .  S
C3051      C3073   1.579       .  S
C3052      C3060   1.373       .  A
C3052      C3055   1.399       .  A
C3053      C3064   1.387       .  A
C3053      C3056   1.412       .  A
C3054      C3068   1.386       .  A
C3054      C3057   1.416       .  A
C3055      C3058   1.377       .  A
C3056      C3062   1.380       .  A
C3057      C3065   1.376       .  A
C3058      N3059   1.361       .  A
C3058      H3071   1.082       .  S
N3059      C3060   1.361       .  A
N3059      C3124   1.444       .  S
C3060      H3061   1.081       .  S
C3062      N3063   1.359       .  A
C3062      H3072   1.081       .  S
N3063      C3064   1.362       .  A
N3063      C3100   1.444       .  S
C3064      H3070   1.081       .  S
C3065      N3066   1.346       .  A
C3065      H3067   1.082       .  S
N3066      C3068   1.348       .  A
N3066      C3112   1.424       .  S
C3068      H3069   1.082       .  S
C3073      C3074   1.418       .  A
C3073      C3078   1.417       .  A
C3074      C3075   1.422       .  A
C3074      H3079   1.080       .  S
C3075      C3076   1.417       .  A
C3075      O3080   1.374       .  S
C3076      C3077   1.417       .  A
C3077      C3078   1.423       .  A
C3077      H3081   1.080       .  S
C3078      O3082   1.374       .  S
O3080      H3084   0.992       .  S
O3082      H3083   0.992       .  S
C3086      C3087   1.424   1_554  A
C3087      C3088   1.414       .  A
C3087      O3092   1.374       .  S
C3088      C3089   1.421       .  A
C3089      C3090   1.421   1_556  A
C3089      H3093   1.081       .  S
C3090      O3094   1.373       .  S
O3092      H3096   0.992       .  S
O3094      H3095   0.992       .  S
C3097      C3098   1.411       .  A
C3097      C3102   1.417       .  A
C3098      C3099   1.400       .  A
C3098      H3103   1.083       .  S
C3099      C3100   1.404       .  A
C3099      O3104   1.371       .  S
C3100      C3101   1.405       .  A
C3101      C3102   1.412       .  A
C3101      H3105   1.083       .  S
C3102      O3106   1.371       .  S
O3104      H3108   0.992       .  S
O3106      H3107   0.992       .  S
C3109      C3110   1.405       .  A
C3109      C3114   1.413       .  A
C3110      C3111   1.397       .  A
C3110      H3115   1.083   1_565  S
C3111      C3112   1.403       .  A
C3111      O3116   1.371       .  S
C3112      C3113   1.396       .  A
C3113      C3114   1.397       .  A
C3113      H3117   1.083       .  S
C3114      O3118   1.372       .  S
O3116      H3120   0.992       .  S
O3118      H3119   0.992       .  S
C3121      C3122   1.405       .  A
C3121      C3126   1.410       .  A
C3122      C3123   1.398       .  A
C3122      H3127   1.084       .  S
C3123      C3124   1.411       .  A
C3123      O3128   1.372       .  S
C3124      C3125   1.407       .  A
C3125      C3126   1.403       .  A
C3125      H3129   1.083       .  S
C3126      O3130   1.372       .  S
O3128      H3132   0.992       .  S
O3130      H3131   0.992       .  S
C3133      C3134   1.399       .  A
C3133      C3138   1.403       .  A
C3134      C3135   1.395       .  A
C3134      H3139   1.084       .  S
C3135      C3136   1.415       .  A
C3135      O3140   1.371       .  S
C3136      C3137   1.412       .  A
C3137      C3138   1.403       .  A
C3137      H3141   1.083       .  S
C3138      O3142   1.371       .  S
O3140      H3144   0.992       .  S
O3142      H3143   0.992       .  S
C3145      C3146   1.409       .  A
C3145      C3150   1.414       .  A
C3146      C3147   1.402       .  A
C3146      H3151   1.084       .  S
C3147      C3148   1.403       .  A
C3147      O3152   1.371       .  S
C3148      C3149   1.401       .  A
C3149      C3150   1.403       .  A
C3149      H3153   1.083       .  S
O3152      H3156   0.992       .  S
O3154      H3155   0.992       .  S
C3157      C3158   1.406       .  A
C3157      C3162   1.412       .  A
C3158      C3159   1.400       .  A
C3158      H3163   1.083       .  S
C3159      C3160   1.406       .  A
C3159      O3164   1.372       .  S
C3160      C3161   1.401       .  A
C3161      C3162   1.402       .  A
C3161      H3165   1.081       .  S
C3162      O3166   1.372       .  S
O3164      H3168   0.992       .  S
O3166      H3167   0.992       .  S
C3169      C3170   1.406       .  A
C3169      C3174   1.409       .  A
C3170      C3171   1.406       .  A
C3170      H3175   1.082       .  S
C3171      C3172   1.413       .  A
C3171      O3176   1.372       .  S
C3172      C3173   1.405       .  A
C3173      C3174   1.399       .  A
C3173      H3177   1.083       .  S
C3174      O3178   1.372       .  S
O3176      H3180   0.992       .  S
O3178      H3179   0.992       .  S
C3181      C3182   1.411       .  A
C3181      C3186   1.418       .  A
C3182      C3183   1.404       .  A
C3182      H3187   1.083       .  S
C3183      C3184   1.405       .  A
C3183      O3188   1.370       .  S
C3184      C3185   1.400       .  A
C3185      C3186   1.402       .  A
C3185      H3189   1.083       .  S
C3186      O3190   1.372       .  S
O3188      H3192   0.992       .  S
O3190      H3191   0.992       .  S
C3193      C3194   1.400       .  A
C3193      C3198   1.405       .  A
C3194      C3195   1.400       .  A
C3194      H3199   1.083       .  S
C3195      C3196   1.410       .  A
C3195      O3200   1.371       .  S
C3196      C3197   1.408       .  A
C3197      C3198   1.404       .  A
C3197      H3201   1.084       .  S
C3198      O3202   1.371       .  S
O3200      H3204   0.992       .  S
O3202      H3203   0.992       .  S
C3205      C3206   1.403       .  A
C3205      C3210   1.412   1_556  A
C3206      C3207   1.395       .  A
C3206      H3211   1.082       .  S
C3207      C3208   1.417       .  A
C3207      O3212   1.372       .  S
C3208      C3209   1.411       .  A
C3209      C3210   1.408   1_556  A
C3209      H3213   1.083   1_556  S
C3210      O3214   1.371       .  S
O3212      H3216   0.992       .  S
O3214      H3215   0.992       .  S
C3217      C3222   1.403       .  A
C3218      C3219   1.396       .  A
C3218      H3223   1.083       .  S
C3219      O3224   1.371       .  S
C3220      C3221   1.413       .  A
C3221      C3222   1.401       .  A
C3221      H3225   1.083       .  S
C3222      O3226   1.371   1_556  S
O3224      H3228   0.992       .  S
O3226      H3227   0.992   1_554  S
C3229      C3234   1.406       .  A
C3230      C3231   1.402       .  A
C3230      H3235   1.083       .  S
C3231      O3236   1.372       .  S
C3232      C3233   1.407       .  A
C3233      C3234   1.405       .  A
C3233      H3237   1.081   1_554  S
C3234      O3238   1.372   1_554  S
O3236      H3240   0.991       .  S
O3238      H3239   0.992       .  S
C3241      C3242   1.418       .  A
C3241      C3246   1.420       .  A
C3242      C3243   1.426       .  A
C3242      H3247   1.079       .  S
C3243      C3244   1.421       .  A
C3243      O3248   1.375       .  S
C3244      C3245   1.414       .  A
C3245      C3246   1.423       .  A
C3245      H3249   1.076       .  S
C3246      O3250   1.373       .  S
O3248      H3252   0.992       .  S
O3250      H3251   0.992       .  S
C3253      C3254   1.415       .  A
C3253      C3258   1.421       .  A
C3254      C3255   1.419       .  A
C3254      H3259   1.081       .  S
C3255      C3256   1.418       .  A
C3255      O3260   1.373       .  S
C3256      C3257   1.415       .  A
C3257      C3258   1.426       .  A
C3257      H3261   1.078       .  S
C3258      O3262   1.373       .  S
O3260      H3264   0.992       .  S
O3262      H3263   0.992       .  S
