geometry optimzed in LAMMPS
_audit_creation_date              2020-11-30 
_audit_creation_method            'lammps2cif' 
_symmetry_space_group_name_H-M    'P1' 
_symmetry_Int_Tables_number       1 
_symmetry_cell_setting            triclinic 
loop_ 
_symmetry_equiv_pos_as_xyz 
  x,y,z 
_cell_length_a                    44.08541412 
_cell_length_b                    41.80224468257756 
_cell_length_c                    33.855480860885834 
_cell_angle_alpha                 91.0363468702487 
_cell_angle_beta                  90.53768783121582 
_cell_angle_gamma                 122.4126910469455 
loop_ 
_atom_site_label 
_atom_site_type_symbol 
_atom_site_fract_x 
_atom_site_fract_y 
_atom_site_fract_z 
_atom_site_charge 
C1          C  0.33179636  0.17388920  0.45447811     0.30200
C2          C  0.32889910  0.16901762  0.03459314     0.30200
C3          C  0.34605568  0.15086860  0.47305603    -0.06000
C4          C  0.35268045  0.21133634  0.47769142    -0.06800
C5          C  0.29382183  0.15425117  0.47153693    -0.06600
C6          C  0.34675812  0.15038040  0.01425473    -0.06000
C7          C  0.35116699  0.20940142  0.01850413    -0.06800
C8          C  0.29289654  0.15222136  0.01262241    -0.06600
C9          C  0.36381268  0.13222613  0.02538671    -0.32000
N10         N  0.37074274  0.11930986  0.49182974     0.14500
C11         C  0.36019821  0.13027662  0.46003151    -0.32000
H12         H  0.36297775  0.12362625  0.42977912     0.16400
C13         C  0.37116110  0.24646265  0.03284720    -0.31000
N14         N  0.38285594  0.26941483  0.00153486     0.13200
C15         C  0.37244834  0.24856346  0.46792314    -0.31000
C16         C  0.25769663  0.13442509  0.02351344    -0.31300
N17         N  0.23702400  0.12622345  0.48996302     0.13700
H18         H  0.24768620  0.12880956  0.05319105     0.16300
C19         C  0.25858276  0.13647623  0.45814700    -0.31300
H20         H  0.24911684  0.13096735  0.42759050     0.16300
H21         H  0.37719618  0.25978252  0.43842485     0.16300
H22         H  0.37033322  0.12841879  0.05512497     0.16400
H23         H  0.37668848  0.25650017  0.06324617     0.16300
C24         C  0.33709087  0.16857174  0.20443027     0.30200
C25         C  0.34028848  0.17064892  0.28459669     0.30200
C26         C  0.34512587  0.14022313  0.22334922    -0.06000
C27         C  0.36681621  0.20575854  0.22345462    -0.06800
C28         C  0.30298457  0.15956488  0.22485559    -0.06600
C29         C  0.34597961  0.14059220  0.26474913    -0.06000
C30         C  0.36755114  0.20721027  0.26415789    -0.06800
C31         C  0.30383886  0.15985092  0.26548691    -0.06600
C32         C  0.35783675  0.11729267  0.27586365    -0.32000
N33         N  0.36573191  0.10450646  0.24276878     0.14500
C34         C  0.35911510  0.11918304  0.21087143    -0.32000
H35         H  0.36655337  0.11688793  0.18105694     0.16400
C36         C  0.39388197  0.24345492  0.27601461    -0.31000
N37         N  0.40968658  0.26354749  0.24331548     0.13200
C38         C  0.39333808  0.24074690  0.21103011    -0.31000
C39         C  0.26828523  0.14227225  0.27684512    -0.31300
N40         N  0.24727990  0.13476314  0.24412400     0.13700
H41         H  0.25813008  0.13373419  0.30631858     0.16300
C42         C  0.26811003  0.14414066  0.21213012    -0.31300
H43         H  0.25817672  0.13761416  0.18189626     0.16300
H44         H  0.39842247  0.24991377  0.18067614     0.16300
H45         H  0.36299614  0.11230219  0.30563594     0.16400
H46         H  0.39996530  0.25493341  0.30594062     0.16300
O47         O  0.06607544  0.00823999  0.46107524    -0.79900
O48         O  0.46603413  0.05396616  0.43048789    -0.79900
O49         O  0.04449139  0.09225059  0.40250311    -0.80000
O50         O  0.48456063  0.51860749  0.00699541    -0.79900
O51         O  0.00350952  0.07465060  0.35713459    -0.80000
O52         O  0.00677889  0.48273101  0.00899778    -0.79900
O53         O  0.43161666  0.01255961  0.47225900    -0.79900
O54         O  0.07383952  0.06329355  0.44936166    -0.80000
C55         C  0.08517903  0.04403412  0.46432486     1.09800
C56         C  0.44211036  0.04308774  0.45674191     1.09600
C57         C  0.03093400  0.10059620  0.37469969     1.09800
C58         C  0.49804328  0.50355245  0.02682560     1.09700
O59         O  0.46341399  0.43192585  0.43804649    -0.79900
O60         O  0.47763098  0.99294310  0.34403784    -0.80000
O61         O  0.06990853  0.51457041  0.38550199    -0.79900
O62         O  0.41844051  0.46915585  0.41373486    -0.79900
O63         O  0.42968223  0.51041975  0.36602737    -0.80000
O64         O  0.02275554  0.45891257  0.39643268    -0.79900
O65         O  0.43824814  0.44529933  0.48315415    -0.79900
O66         O  0.03439122  0.03699687  0.33678084    -0.80000
Co67       Co  0.01345541  0.47282222  0.44921422     1.51500
Co68       Co  0.47211565  0.02007024  0.39032642     1.51700
Co69       Co  0.05168740  0.04924415  0.39594411     1.51600
Co70       Co  0.46005021  0.49304905  0.45624024     1.51500
O71         O  0.00322889  0.01102836  0.42212616    -1.41900
C72         C  0.44207918  0.42128954  0.46617069     1.09700
C73         C  0.00430955  0.01452247  0.31826297     1.09800
C74         C  0.05360499  0.47882302  0.38210391     1.09700
C75         C  0.40804547  0.48008210  0.38347865     1.09700
O76         O  0.07725903  0.01286827  0.22236210    -0.79900
O77         O  0.47937292  0.05966987  0.19752319    -0.79900
O78         O  0.06298576  0.06954332  0.11281828    -0.80000
O79         O  0.47218789  0.48185055  0.25909320    -0.79900
O80         O  0.03889721  0.08726888  0.15602736    -0.80000
O81         O  0.03131746  0.52014578  0.25779183    -0.79900
O82         O  0.43435694  0.00286733  0.21055753    -0.79900
O83         O  0.08366980  0.05439544  0.18148537    -0.80000
C84         C  0.09739667  0.04372916  0.20757281     1.09800
C85         C  0.44897684  0.03859963  0.21223698     1.09600
C86         C  0.05992767  0.09553698  0.12800850     1.09800
C87         C  0.50247488  0.50454499  0.27725138     1.09700
O88         O  0.50512256  0.44587319  0.23593461    -0.79900
O89         O  0.49832102  0.03561550  0.08830537    -0.80000
O90         O  0.07758768  0.51255628  0.11794570    -0.79900
O91         O  0.43189369  0.45398904  0.14672638    -0.79900
O92         O  0.43722771  0.50751872  0.13303846    -0.80000
O93         O  0.04668748  0.47013394  0.16480485    -0.79900
O94         O  0.46380027  0.42836634  0.19159902    -0.79900
O95         O  0.01072091  0.99187325  0.09341719    -0.80000
Co96       Co  0.02953536  0.49332070  0.20795087     1.51500
Co97       Co  0.49008534  0.04607507  0.14603932     1.51700
Co98       Co  0.04336735  0.01975448  0.14044153     1.51600
Co99       Co  0.45443951  0.46964150  0.19981963     1.51500
O100        O  0.00203435  0.01121887  0.17346650    -1.41900
C101        C  0.47786979  0.41996396  0.21860310     1.09700
C102        C  0.00202750  0.01026639  0.07142812     1.09800
C103        C  0.06783271  0.48158513  0.13459443     1.09700
C104        C  0.41934734  0.47150985  0.13076938     1.09700
C105        C  0.16887063  0.35214168  0.30828966     0.30200
C106        C  0.16758417  0.35050069  0.38811207     0.30200
C107        C  0.15900019  0.37878678  0.32824415    -0.06000
C108        C  0.14043533  0.31378746  0.32576379    -0.06800
C109        C  0.20353491  0.36161102  0.32917990    -0.06600
C110        C  0.15899215  0.37851978  0.36968360    -0.06000
C111        C  0.13938054  0.31354270  0.36678291    -0.06800
C112        C  0.20298074  0.36140744  0.36952341    -0.06600
C113        C  0.13753207  0.39167631  0.38148537    -0.32000
N114        N  0.12580003  0.40099490  0.34924559     0.14500
C115        C  0.13728411  0.39170461  0.31662482    -0.32000
H116        H  0.12867564  0.39217762  0.28676347     0.16400
C117        C  0.11270663  0.27802020  0.37752379    -0.31000
N118        N  0.09833901  0.25619289  0.34427972     0.13200
C119        C  0.11484577  0.27756765  0.31242251    -0.31000
C120        C  0.23748947  0.37574839  0.38316155    -0.31300
N121        N  0.25873768  0.38387731  0.35153715     0.13700
H122        H  0.24692944  0.38229672  0.41359670     0.16300
C123        C  0.23843054  0.37575006  0.31825142    -0.31300
H124        H  0.24882418  0.38256210  0.28863516     0.16300
H125        H  0.10956787  0.26690268  0.28217376     0.16300
H126        H  0.12928115  0.39250354  0.41131743     0.16400
H127        H  0.10580214  0.26792040  0.40733351     0.16300
C128        C  0.17473012  0.34972988  0.05883117     0.30200
C129        C  0.17604168  0.34767447  0.13883057     0.30200
C130        C  0.15781039  0.36885543  0.08029907    -0.06000
C131        C  0.15286779  0.30953291  0.07633528    -0.06800
C132        C  0.21175896  0.36677412  0.07847229    -0.06600
C133        C  0.15892640  0.36825368  0.12121445    -0.06000
C134        C  0.15318490  0.30887880  0.11751238    -0.06800
C135        C  0.21242665  0.36617833  0.11908689    -0.06600
C136        C  0.14118591  0.38486584  0.13516530    -0.32000
N137        N  0.13053814  0.39637908  0.10386862     0.14500
C138        C  0.13911864  0.38549403  0.07013201    -0.32000
H139        H  0.13224833  0.38951529  0.04073333     0.16400
C140        C  0.13072942  0.27189095  0.12805862    -0.31000
N141        N  0.11833266  0.24980421  0.09482931     0.13200
C142        C  0.13087658  0.27221553  0.06300905    -0.31000
C143        C  0.24778787  0.38331882  0.13130607    -0.31300
N144        N  0.26841463  0.39422771  0.09877477     0.13700
H145        H  0.25783276  0.38772372  0.16142356     0.16300
C146        C  0.24674509  0.38398352  0.06620944    -0.31300
H147        H  0.25583624  0.38919456  0.03601800     0.16300
H148        H  0.12452917  0.26166819  0.03279589     0.16300
H149        H  0.13634166  0.38863910  0.16566864     0.16400
H150        H  0.12414753  0.26136156  0.15771586     0.16300
C151        C  0.17391891  0.32297851  0.24664837    -0.05600
C152        C  0.17413292  0.35378939  0.26453193     0.00400
C153        C  0.18884536  0.38761721  0.24276198    -0.08200
C154        C  0.18863330  0.38390239  0.20186005    -0.05600
C155        C  0.17963856  0.34961567  0.18310193     0.00300
C156        C  0.18028716  0.32224994  0.20652904    -0.08100
C157        C  0.19322005  0.29649651  0.19358703     0.62300
H158        H  0.17218100  0.30099148  0.26482352     0.13000
H159        H  0.19730966  0.40871010  0.18434822     0.13000
C160        C  0.20828917  0.42817418  0.25962496     0.62500
F161        F  0.22326783  0.30572627  0.21625714    -0.22700
F162        F  0.20311512  0.30016269  0.15461605    -0.20000
F163        F  0.16697736  0.25903805  0.20002654    -0.19700
F164        F  0.23859001  0.45109760  0.23785734    -0.19700
F165        F  0.22024270  0.43175554  0.29818849    -0.20100
F166        F  0.18612499  0.44203753  0.25683493    -0.22700
C167        C  0.17575253  0.32321254  0.49295905    -0.05600
C168        C  0.17711093  0.35343269  0.01479419     0.00400
C169        C  0.18600487  0.38602144  0.49433374    -0.08200
C170        C  0.17993969  0.38267205  0.45367757    -0.05600
C171        C  0.17109442  0.34964711  0.43217965     0.00300
C172        C  0.17450336  0.32168744  0.45188487    -0.08100
C173        C  0.17936226  0.29100276  0.43359010     0.62300
H174        H  0.17834623  0.30229025  0.50827311     0.13000
H175        H  0.18569379  0.40774151  0.43834628     0.13000
C176        C  0.20559591  0.42730354  0.01207989     0.62500
F177        F  0.21033709  0.29506711  0.44951298    -0.22700
F178        F  0.18273930  0.29176346  0.39322587    -0.20000
F179        F  0.15056672  0.25569739  0.44327990    -0.19700
F180        F  0.21537139  0.43052683  0.05138467    -0.19700
F181        F  0.18425883  0.44203724  0.00722001    -0.20100
F182        F  0.23671569  0.44856837  0.49113613    -0.22700
C183        C  0.05234458  0.14721560  0.10925140    -0.05600
C184        C  0.07525977  0.13337704  0.11101674     0.00400
C185        C  0.11159930  0.15707136  0.10044561    -0.08200
C186        C  0.12468279  0.19533904  0.09280610    -0.05600
C187        C  0.10223094  0.20962153  0.09452288     0.00300
C188        C  0.06528788  0.18505755  0.10085498    -0.08100
C189        C  0.04009273  0.19926254  0.09933557     0.62300
H190        H  0.02421498  0.12834181  0.11597096     0.13000
H191        H  0.15290588  0.21498559  0.08720669     0.13000
C192        C  0.13650034  0.14251391  0.09869982     0.62500
F193        F  0.00456422  0.17012013  0.10323888    -0.22700
F194        F  0.04319150  0.21593316  0.06344588    -0.20000
F195        F  0.04883386  0.22575524  0.12947913    -0.19700
F196        F  0.12347227  0.11326636  0.07081190    -0.19700
F197        F  0.13856335  0.12940167  0.13516612    -0.20100
F198        F  0.17089509  0.17053881  0.08828380    -0.22700
C199        C  0.36563446  0.47119128  0.10719565    -0.05600
C200        C  0.38163378  0.45021589  0.11430770     0.00400
C201        C  0.35988306  0.40981606  0.10984356    -0.08200
C202        C  0.32263410  0.39236523  0.10292643    -0.05600
C203        C  0.30682666  0.41357277  0.09942937     0.00300
C204        C  0.32848995  0.45342600  0.09995164    -0.08100
C205        C  0.31184681  0.47676110  0.09422729     0.62300
H206        H  0.38205100  0.50182352  0.10948038     0.13000
H207        H  0.30507551  0.36176133  0.10183299     0.13000
C208        C  0.37486398  0.38454746  0.11322867     0.62500
F209        F  0.33769893  0.01631624  0.09728024    -0.22700
F210        F  0.28756696  0.46932261  0.12370402    -0.20000
F211        F  0.29413213  0.46750983  0.05793665    -0.19700
F212        F  0.38274396  0.38247968  0.15236254    -0.19700
F213        F  0.40556621  0.39867337  0.09122340    -0.20100
F214        F  0.35043844  0.34799153  0.09919149    -0.22700
C215        C  0.11992989  0.47811907  0.12080429    -0.05600
C216        C  0.08249294  0.45948744  0.12053094     0.00400
C217        C  0.06076775  0.42074439  0.10909513    -0.08200
C218        C  0.07766799  0.40071728  0.10229834    -0.05600
C219        C  0.11501324  0.41871712  0.10652662     0.00300
C220        C  0.13672836  0.45810317  0.11498933    -0.08100
C221        C  0.17731395  0.47867813  0.11894998     0.62300
H222        H  0.13585410  0.50816341  0.12834543     0.13000
H223        H  0.06197421  0.37070896  0.09473357     0.13000
C224        C  0.02047581  0.40137418  0.10249366     0.62500
F225        F  0.19266922  0.01631214  0.12830609    -0.22700
F226        F  0.19103063  0.47361841  0.08460134    -0.20000
F227        F  0.18672753  0.46475844  0.15028210    -0.19700
F228        F  0.01362195  0.42131112  0.07549893    -0.19700
F229        F  0.00411247  0.40001625  0.13747674    -0.20100
F230        F  0.00511422  0.36461283  0.08790117    -0.22700
C231        C  0.09608085  0.19733840  0.33633603    -0.05600
C232        C  0.07797335  0.21578394  0.34456669     0.00400
C233        C  0.04244062  0.19503629  0.35848756    -0.08200
C234        C  0.02743034  0.15692132  0.36754426    -0.05600
C235        C  0.04695471  0.13959876  0.36262125     0.00300
C236        C  0.08064582  0.15895791  0.34440089    -0.08100
C237        C  0.09914235  0.13851990  0.33206919     0.60700
H238        H  0.12294483  0.21373447  0.32485562     0.13000
H239        H  0.00050982  0.14075107  0.37903537     0.13000
C240        C  0.01930318  0.21149735  0.36368000     0.62500
F241        F  0.13110357  0.16226858  0.31332941    -0.22700
F242        F  0.07680210  0.10897887  0.30600663    -0.20000
F243        F  0.10660494  0.12422820  0.36468520    -0.19700
F244        F  0.03652790  0.24903383  0.35329117    -0.19700
F245        F  0.00929978  0.20875543  0.40267857    -0.20100
F246        F  0.98865078  0.19094639  0.34006400    -0.22700
C247        C  0.31325979  0.44607428  0.34892126    -0.05600
C248        C  0.29693594  0.40709405  0.35371623     0.00400
C249        C  0.31758260  0.39181854  0.36377578    -0.08200
C250        C  0.35444407  0.41674125  0.37118852    -0.05600
C251        C  0.37066556  0.45612723  0.36901283     0.00300
C252        C  0.35017492  0.47128610  0.35626513    -0.08100
C253        C  0.36658615  0.01368331  0.35084271     0.62300
H254        H  0.29633200  0.45648067  0.34067218     0.13000
H255        H  0.37078774  0.40568219  0.37962711     0.13000
C256        C  0.30036328  0.34941170  0.36675751     0.62500
F257        F  0.34080328  0.02178921  0.34149535    -0.22700
F258        F  0.39092276  0.02638433  0.32059206    -0.20000
F259        F  0.38390270  0.03350475  0.38536142    -0.19700
F260        F  0.28364649  0.33182407  0.33108307    -0.19700
F261        F  0.27513651  0.33569073  0.39609365    -0.20100
F262        F  0.32542309  0.34014451  0.37564381    -0.22700
C263        C  0.05224442  0.41992123  0.36208111    -0.05600
C264        C  0.07215104  0.45998349  0.36579533     0.00400
C265        C  0.10973284  0.48015880  0.35771367    -0.08200
C266        C  0.12601041  0.45940031  0.35049349    -0.05600
C267        C  0.10644141  0.41982435  0.35028749     0.00300
C268        C  0.06890721  0.39959075  0.35429289    -0.08100
C269        C  0.04714716  0.35665434  0.35099326     0.62300
H270        H  0.02358924  0.40433688  0.36689611     0.13000
H271        H  0.15474593  0.47388382  0.34653815     0.13000
C272        C  0.13327199  0.02396184  0.35737574     0.62500
F273        F  0.01061991  0.34183531  0.35286111    -0.22700
F274        F  0.05685736  0.34203199  0.38141214    -0.20000
F275        F  0.05370729  0.34507670  0.31527864    -0.19700
F276        F  0.13659593  0.03885229  0.39508715    -0.19700
F277        F  0.11831819  0.03780206  0.33215085    -0.20100
F278        F  0.16755515  0.03673563  0.34437305    -0.22700
C279        C  0.42305985  0.10860595  0.24667510    -0.05600
C280        C  0.38568751  0.08631952  0.24132979     0.00400
C281        C  0.36890311  0.04761554  0.23052782    -0.08200
C282        C  0.39040960  0.03249260  0.22407583    -0.05600
C283        C  0.42827851  0.05532155  0.22672339     0.00300
C284        C  0.44489819  0.09405441  0.23912114    -0.08100
C285        C  0.48544982  0.12065598  0.24304702     0.62300
H286        H  0.43508875  0.13828742  0.25465621     0.13000
H287        H  0.37769827  0.00308184  0.21456121     0.13000
C288        C  0.32843333  0.02298577  0.22484635     0.62500
F289        F  0.49500984  0.15426633  0.26248432    -0.22700
F290        F  0.50023728  0.12949456  0.20592610    -0.20000
F291        F  0.99626800  0.09641169  0.27062510    -0.19700
F292        F  0.31773156  0.03593953  0.19370745    -0.19700
F293        F  0.31205462  0.02449105  0.25885767    -0.20100
F294        F  0.31681715  0.98548238  0.21669646    -0.22700
C295        C  0.41478979  0.32327427  0.25699921    -0.05600
C296        C  0.43041237  0.30390973  0.24240693     0.00400
C297        C  0.46450508  0.32395250  0.22486962    -0.08200
C298        C  0.48034345  0.36278596  0.21886893    -0.05600
C299        C  0.46265688  0.38101009  0.22979107     0.00300
C300        C  0.43087672  0.36208557  0.25155002    -0.08100
C301        C  0.41494542  0.38322247  0.26978003     0.62300
H302        H  0.38923156  0.30733256  0.27154501     0.13000
H303        H  0.50606176  0.37892779  0.20470439     0.13000
C304        C  0.48399065  0.30450613  0.21317072     0.62500
F305        F  0.38416705  0.35942459  0.29041939    -0.22700
F306        F  0.40620660  0.39992329  0.24070001    -0.20000
F307        F  0.43983937  0.41101875  0.29590451    -0.19700
F308        F  0.46556551  0.27853169  0.18262529    -0.19700
F309        F  0.48651004  0.28598415  0.24526789    -0.20100
F310        F  0.51846446  0.33018785  0.20071686    -0.22700
C311        C  0.15292284  0.10586317  0.22043687    -0.05600
C312        C  0.13532703  0.06643801  0.22163351     0.00400
C313        C  0.15442292  0.04974494  0.23595662    -0.08200
C314        C  0.19114241  0.07381916  0.24566674    -0.05600
C315        C  0.20888713  0.11293328  0.24175436     0.00300
C316        C  0.18956862  0.12947248  0.23026371    -0.08100
C317        C  0.20789204  0.17198679  0.22808350     0.62300
H318        H  0.13779581  0.11806391  0.21114531     0.13000
H319        H  0.20700959  0.06241289  0.25478628     0.13000
C320        C  0.13749050  0.00707995  0.23986313     0.62500
F321        F  0.18355678  0.18247044  0.22013841    -0.22700
F322        F  0.23276220  0.18527571  0.19843702    -0.20000
F323        F  0.22511521  0.18877978  0.26379602    -0.19700
F324        F  0.12203735  0.98844216  0.20437664    -0.19700
F325        F  0.11220284  0.49311393  0.26842077    -0.20100
F326        F  0.16256229  0.99830529  0.25071565    -0.22700
C327        C  0.38732224  0.04244804  0.47130576    -0.05600
C328        C  0.42509736  0.06370164  0.46888497     0.00400
C329        C  0.44488839  0.10214940  0.48101683    -0.08200
C330        C  0.42603779  0.11960725  0.49065523    -0.05600
C331        C  0.38836917  0.09907207  0.48936098     0.00300
C332        C  0.36848101  0.05975762  0.48101082    -0.08100
C333        C  0.32763649  0.03680404  0.48153989     0.62300
H334        H  0.37257729  0.01239674  0.46386874     0.13000
H335        H  0.44040471  0.14962008  0.49799545     0.13000
C336        C  0.48541655  0.12377987  0.48503810     0.62500
F337        F  0.31343462  0.99841260  0.47567229    -0.22700
F338        F  0.31405385  0.04844802  0.45205411    -0.20000
F339        F  0.31645877  0.04227905  0.01783219    -0.19700
F340        F  0.00178891  0.12643826  0.45442886    -0.19700
F341        F  0.99646927  0.10494563  0.00712542    -0.20100
F342        F  0.99992432  0.15997586  0.99978360    -0.22700
C343        C  0.44918421  0.36991506  0.98392613    -0.05600
C344        C  0.42653622  0.38367404  0.48174593     0.00400
C345        C  0.39040317  0.36126949  0.49358893    -0.08200
C346        C  0.37744300  0.32378313  0.50386135    -0.05600
C347        C  0.39983202  0.30946418  0.50285627     0.00300
C348        C  0.43610730  0.33279815  0.99450287    -0.08100
C349        C  0.46066323  0.31783160  0.99532281     0.62300
H350        H  0.47711774  0.38817905  0.97608339     0.13000
H351        H  0.34930059  0.30453762  0.51014486     0.13000
C352        C  0.36534818  0.37590311  0.49285346     0.62500
F353        F  0.49630217  0.34650594  0.99097345    -0.22700
F354        F  0.45107408  0.29135483  0.96496062    -0.20000
F355        F  0.45769838  0.30096931  0.03104736    -0.19700
F356        F  0.36363176  0.38727509  0.45526338    -0.19700
F357        F  0.37772879  0.40639280  0.51900350    -0.20100
F358        F  0.33083757  0.34842193  0.50347883    -0.22700
C359        C  0.14308292  0.10397974  0.47943449    -0.05600
C360        C  0.12302539  0.06405603  0.48005743     0.00400
C361        C  0.14111455  0.04538185  0.49063366    -0.08200
C362        C  0.17888798  0.06714290  0.49433158    -0.05600
C363        C  0.19860386  0.10623863  0.48894261     0.00300
C364        C  0.18084789  0.12354521  0.98553944    -0.08100
C365        C  0.20136175  0.16638905  0.98420498     0.62300
H366        H  0.12962069  0.11696320  0.97700949     0.13000
H367        H  0.19370247  0.05373143  0.50017854     0.13000
C368        C  0.12164396  0.00303383  0.49743901     0.62500
F369        F  0.17858506  0.17972230  0.98440754    -0.22700
F370        F  0.22099900  0.17818868  0.95016098    -0.20000
F371        F  0.22440491  0.18223054  0.01668059    -0.19700
F372        F  0.10840756  0.98302617  0.46194165    -0.19700
F373        F  0.09462649  0.48904589  0.52186551    -0.20100
F374        F  0.14469744  0.48982269  0.50969843    -0.22700
C375        C  0.36725680  0.18220666  0.39427826    -0.05600
C376        C  0.33693779  0.17998742  0.41060005     0.00400
C377        C  0.31804658  0.19103251  0.38614863    -0.08200
C378        C  0.32095628  0.18825490  0.34553816    -0.05600
C379        C  0.34320124  0.17707417  0.32888318     0.00300
C380        C  0.37137377  0.18111604  0.35355672    -0.08100
C381        C  0.40717287  0.18728367  0.34077151     0.62300
H382        H  0.38874382  0.18604019  0.41351570     0.13000
H383        H  0.30678338  0.19690234  0.32675649     0.13000
C384        C  0.29732312  0.20894592  0.39919262     0.62500
F385        F  0.43478991  0.22106274  0.35762975    -0.22700
F386        F  0.41223215  0.18952347  0.30063493    -0.20000
F387        F  0.41030000  0.15819218  0.35449318    -0.19700
F388        F  0.29818081  0.21530087  0.43934981    -0.19700
F389        F  0.26195477  0.18614600  0.38622207    -0.20100
F390        F  0.31200995  0.24380251  0.38176714    -0.22700
C391        C  0.32517002  0.19393506  0.10006533    -0.05600
C392        C  0.32459186  0.16482804  0.07847543     0.00400
C393        C  0.31535590  0.13145619  0.09873398    -0.08200
C394        C  0.32135708  0.13482950  0.13939789    -0.05600
C395        C  0.33171565  0.16844215  0.16056257     0.00300
C396        C  0.32797416  0.19633241  0.14107472    -0.08100
C397        C  0.32455969  0.22795933  0.15956635     0.62300
H398        H  0.32178977  0.21436297  0.08477506     0.13000
H399        H  0.31465435  0.10956978  0.15492615     0.13000
C400        C  0.29602097  0.09118316  0.08144311     0.62500
F401        F  0.35289736  0.26270758  0.14776103    -0.22700
F402        F  0.32360812  0.22878712  0.20014757    -0.20000
F403        F  0.29294939  0.22380925  0.14573808    -0.19700
F404        F  0.31677475  0.07600998  0.08795788    -0.19700
F405        F  0.28761062  0.08807809  0.04171418    -0.20100
F406        F  0.26399409  0.06938726  0.10079395    -0.22700
C407        C  0.33181820  0.17353597  0.95456199     0.30200
C408        C  0.32868906  0.16910781  0.53446053     0.30200
C409        C  0.34663481  0.15108663  0.97325944    -0.06000
C410        C  0.35226000  0.21109216  0.97764584    -0.06800
C411        C  0.29388869  0.15336098  0.97168288    -0.06600
C412        C  0.34613405  0.15005629  0.51403109    -0.06000
C413        C  0.35145740  0.20952098  0.51853347    -0.06800
C414        C  0.29274143  0.15291028  0.51246111    -0.06600
C415        C  0.36328946  0.13197141  0.52509073    -0.32000
N416        N  0.37120166  0.11947235  0.99215432     0.14500
C417        C  0.36068695  0.13040297  0.96030665    -0.32000
H418        H  0.36330428  0.12354851  0.93007594     0.16400
C419        C  0.37157176  0.24653839  0.53299888    -0.31000
N420        N  0.38354147  0.26958620  0.50175512     0.13200
C421        C  0.37174315  0.24830130  0.96775674    -0.31000
C422        C  0.25753148  0.13571434  0.52329440    -0.31300
N423        N  0.23714056  0.12431146  0.99019337     0.13700
H424        H  0.24748145  0.13004647  0.55295313     0.16300
C425        C  0.25862245  0.13482440  0.95832112    -0.31300
H426        H  0.24909682  0.12909351  0.92778257     0.16300
H427        H  0.37646532  0.25943087  0.93822336     0.16300
H428        H  0.36998108  0.12829977  0.55480383     0.16400
H429        H  0.37683899  0.25648185  0.56342662     0.16300
C430        C  0.33700132  0.16865743  0.70429556     0.30200
C431        C  0.34016367  0.17087192  0.78448205     0.30200
C432        C  0.34470135  0.14010711  0.72333487    -0.06000
C433        C  0.36688890  0.20576365  0.72325208    -0.06800
C434        C  0.30300447  0.16002402  0.72468165    -0.06600
C435        C  0.34549996  0.14054026  0.76473973    -0.06000
C436        C  0.36764819  0.20730877  0.76396469    -0.06800
C437        C  0.30383547  0.16040413  0.76532461    -0.06600
C438        C  0.35729309  0.11723453  0.77601124    -0.32000
N439        N  0.36529841  0.10445106  0.74301408     0.14500
C440        C  0.35879313  0.11911924  0.71103030    -0.32000
H441        H  0.36642159  0.11689614  0.68128759     0.16400
C442        C  0.39406983  0.24355945  0.77569964    -0.31000
N443        N  0.40986163  0.26355359  0.74292983     0.13200
C444        C  0.39341672  0.24068947  0.71071044    -0.31000
C445        C  0.26826495  0.14279444  0.77660537    -0.31300
N446        N  0.24731661  0.13531223  0.74385602     0.13700
H447        H  0.25803853  0.13412621  0.80603606     0.16300
C448        C  0.26815867  0.14460730  0.71189788    -0.31300
H449        H  0.25823817  0.13793630  0.68166627     0.16300
H450        H  0.39834642  0.24980344  0.68033985     0.16300
H451        H  0.36239943  0.11229412  0.80581855     0.16400
H452        H  0.40016683  0.25513580  0.80559218     0.16300
O453        O  0.06616515  0.00732927  0.96172319    -0.79900
O454        O  0.46626154  0.05408699  0.93054760    -0.79900
O455        O  0.04389242  0.09067691  0.90591571    -0.80000
O456        O  0.48432868  0.51872853  0.50714793    -0.79900
O457        O  0.00103048  0.07040893  0.86229784    -0.80000
O458        O  0.00626327  0.48240279  0.50876500    -0.79900
O459        O  0.43186239  0.01265087  0.97229624    -0.79900
O460        O  0.07560515  0.06314803  0.94959470    -0.80000
C461        C  0.08591542  0.04308353  0.96481072     1.09800
C462        C  0.44236433  0.04319262  0.95683898     1.09600
C463        C  0.02949046  0.09784162  0.87836907     1.09800
C464        C  0.49792860  0.50380617  0.52698725     1.09700
O465        O  0.46337808  0.43180612  0.93773536    -0.79900
O466        O  0.47774327  0.99314329  0.84393082    -0.80000
O467        O  0.07023669  0.51517408  0.88564508    -0.79900
O468        O  0.41866742  0.46949327  0.91344979    -0.79900
O469        O  0.43031568  0.51083008  0.86574625    -0.80000
O470        O  0.02319554  0.45941661  0.89658843    -0.79900
O471        O  0.43827015  0.44531854  0.98278947    -0.79900
O472        O  0.03430304  0.03889231  0.83830296    -0.80000
Co473      Co  0.01396742  0.47312702  0.94945894     1.51500
Co474      Co  0.47228894  0.02023175  0.89026493     1.51700
Co475      Co  0.05286420  0.05005043  0.89668869     1.51600
Co476      Co  0.46027793  0.49315186  0.95600938     1.51500
O477        O  0.00585915  0.01348939  0.92386994    -1.41900
C478        C  0.44203743  0.42123694  0.96585645     1.09700
C479        C  0.00484348  0.01224313  0.82184149     1.09800
C480        C  0.05394209  0.47945709  0.88207632     1.09700
C481        C  0.40845129  0.48054081  0.88312864     1.09700
O482        O  0.07748823  0.01315945  0.72281833    -0.79900
O483        O  0.47916790  0.06010799  0.69754712    -0.79900
O484        O  0.06285865  0.06927771  0.61318276    -0.80000
O485        O  0.47262165  0.48192050  0.75914991    -0.79900
O486        O  0.03886444  0.08714422  0.65631775    -0.80000
O487        O  0.03132500  0.52006570  0.75794513    -0.79900
O488        O  0.43426189  0.00327970  0.71074242    -0.79900
O489        O  0.08359556  0.05442589  0.68179249    -0.80000
C490        C  0.09750636  0.04385798  0.70772030     1.09800
C491        C  0.44883030  0.03899513  0.71238817     1.09600
C492        C  0.05978893  0.09532398  0.62820851     1.09800
C493        C  0.50293713  0.50468178  0.77722416     1.09700
O494        O  0.50535163  0.44592969  0.73569452    -0.79900
O495        O  0.49812043  0.03582860  0.58839756    -0.80000
O496        O  0.07730369  0.51216528  0.61787681    -0.79900
O497        O  0.43169121  0.45411134  0.64701027    -0.79900
O498        O  0.43710069  0.50773015  0.63350440    -0.80000
O499        O  0.04647346  0.46985789  0.66486603    -0.79900
O500        O  0.46404225  0.42855055  0.69137422    -0.79900
O501        O  0.01049144  0.99139738  0.59426820    -0.80000
Co502      Co  0.02945453  0.49320277  0.70803333     1.51500
Co503      Co  0.48988508  0.04637415  0.64610877     1.51700
Co504      Co  0.04318261  0.01957998  0.64115065     1.51600
Co505      Co  0.45461430  0.46974661  0.69996677     1.51500
O506        O  0.00205049  0.01137287  0.67455620    -1.41900
C507        C  0.47812529  0.42005575  0.71827925     1.09700
C508        C  0.00204813  0.00986589  0.57212774     1.09800
C509        C  0.06752830  0.48120219  0.63456370     1.09700
C510        C  0.41912895  0.47171307  0.63123539     1.09700
C511        C  0.16823687  0.35197050  0.80842931     0.30200
C512        C  0.16764776  0.35140114  0.88830439     0.30200
C513        C  0.15846751  0.37878941  0.82815678    -0.06000
C514        C  0.13993008  0.31358465  0.82652749    -0.06800
C515        C  0.20322812  0.36202158  0.82909638    -0.06600
C516        C  0.15887360  0.37913371  0.86960020    -0.06000
C517        C  0.13921931  0.31408606  0.86753480    -0.06800
C518        C  0.20297988  0.36230958  0.86946157    -0.06600
C519        C  0.13790874  0.39289991  0.88133945    -0.32000
N520        N  0.12604930  0.40192908  0.84897604     0.14500
C521        C  0.13701667  0.39196604  0.81641514    -0.32000
H522        H  0.12820985  0.39215530  0.78656703     0.16400
C523        C  0.11294247  0.27859515  0.87908251    -0.31000
N524        N  0.09852559  0.25569307  0.84652007     0.13200
C525        C  0.11460996  0.27665792  0.81415332    -0.31000
C526        C  0.23769566  0.37734020  0.88288216    -0.31300
N527        N  0.25881877  0.38539319  0.85114446     0.13700
H528        H  0.24729722  0.38424516  0.91324127     0.16300
C529        C  0.23820781  0.37661291  0.81796669    -0.31300
H530        H  0.24837522  0.38308956  0.78823249     0.16300
H531        H  0.10960330  0.26524538  0.78421922     0.16300
H532        H  0.12998777  0.39426163  0.91119117     0.16400
H533        H  0.10657001  0.26921212  0.90917350     0.16300
C534        C  0.17439040  0.34910272  0.55865188     0.30200
C535        C  0.17521340  0.34707977  0.63868567     0.30200
C536        C  0.15735722  0.36827908  0.57982408    -0.06000
C537        C  0.15237991  0.30895364  0.57616343    -0.06800
C538        C  0.21132176  0.36613353  0.57856825    -0.06600
C539        C  0.15820071  0.36765542  0.62075377    -0.06000
C540        C  0.15243404  0.30829669  0.61733669    -0.06800
C541        C  0.21174942  0.36554747  0.61919671    -0.06600
C542        C  0.14010702  0.38397758  0.63441475    -0.32000
N543        N  0.12955418  0.39542078  0.60296486     0.14500
C544        C  0.13855126  0.38474732  0.56937513    -0.32000
H545        H  0.13187384  0.38878134  0.53988429     0.16400
C546        C  0.12972587  0.27133673  0.62781296    -0.31000
N547        N  0.11742031  0.24928067  0.59455541     0.13200
C548        C  0.13028984  0.27169203  0.56277484    -0.31000
C549        C  0.24707490  0.38272257  0.63165888    -0.31300
N550        N  0.26791490  0.39365019  0.59927726     0.13700
H551        H  0.25695461  0.38722038  0.66185461     0.16300
C552        C  0.24640335  0.38338824  0.56656339    -0.31300
H553        H  0.25567001  0.38871066  0.53644221     0.16300
H554        H  0.12407942  0.26116982  0.53255431     0.16300
H555        H  0.13502150  0.38766824  0.66484746     0.16400
H556        H  0.12292257  0.26079812  0.65746108     0.16300
C557        C  0.17287909  0.32261065  0.74676305    -0.05600
C558        C  0.17325950  0.35350993  0.76457874     0.00400
C559        C  0.18782716  0.38724820  0.74255411    -0.08200
C560        C  0.18738874  0.38330155  0.70165010    -0.05600
C561        C  0.17851380  0.34900914  0.68302062     0.00300
C562        C  0.17915616  0.32172480  0.70662552    -0.08100
C563        C  0.19187547  0.29575603  0.69384693     0.62300
H564        H  0.17118717  0.30069968  0.76501968     0.13000
H565        H  0.19596910  0.40802094  0.68402264     0.13000
C566        C  0.20733341  0.42799159  0.75897093     0.62500
F567        F  0.22175731  0.30473064  0.71669668    -0.22700
F568        F  0.20193650  0.29937273  0.65494397    -0.20000
F569        F  0.16539666  0.25837367  0.70022774    -0.19700
F570        F  0.23765470  0.45066116  0.73709711    -0.19700
F571        F  0.21927092  0.43199671  0.79759160    -0.20100
F572        F  0.18522034  0.44188925  0.75570673    -0.22700
C573        C  0.17596863  0.32412789  0.99301246    -0.05600
C574        C  0.17691559  0.35261300  0.51460932     0.00400
C575        C  0.18625229  0.38696550  0.99466607    -0.08200
C576        C  0.18021711  0.38376644  0.95396155    -0.05600
C577        C  0.17147506  0.35081634  0.93236273     0.00300
C578        C  0.17489148  0.32281706  0.95196469    -0.08100
C579        C  0.17971088  0.29212623  0.93356886     0.62300
H580        H  0.17850688  0.30312343  0.00821232     0.13000
H581        H  0.18586163  0.40882230  0.93867800     0.13000
C582        C  0.20534096  0.42641827  0.51150900     0.62500
F583        F  0.21039362  0.29577811  0.94982143    -0.22700
F584        F  0.18355779  0.29325699  0.89326359    -0.20000
F585        F  0.15067066  0.25680570  0.94277902    -0.19700
F586        F  0.21502387  0.42982591  0.55085988    -0.19700
F587        F  0.18402853  0.44113886  0.50630541    -0.20100
F588        F  0.23693274  0.44960660  0.99169965    -0.22700
C589        C  0.05180453  0.14676720  0.60962920    -0.05600
C590        C  0.07481567  0.13301719  0.61091596     0.00400
C591        C  0.11095886  0.15669792  0.59961890    -0.08200
C592        C  0.12379530  0.19486777  0.59177031    -0.05600
C593        C  0.10134885  0.20911571  0.59421801     0.00300
C594        C  0.06454688  0.18456299  0.60127348    -0.08100
C595        C  0.03930942  0.19874484  0.60067535     0.62300
H596        H  0.02379505  0.12790406  0.61684289     0.13000
H597        H  0.15190341  0.21453061  0.58563971     0.13000
C598        C  0.13601744  0.14235234  0.59755653     0.62500
F599        F  0.00383921  0.16952083  0.60477186    -0.22700
F600        F  0.04205476  0.21578443  0.56512073    -0.20000
F601        F  0.04829493  0.22493744  0.63120277    -0.19700
F602        F  0.12250110  0.11243523  0.57043824    -0.19700
F603        F  0.13913588  0.13029489  0.63423731    -0.20100
F604        F  0.17003358  0.17023523  0.58589936    -0.22700
C605        C  0.36491428  0.47125069  0.60918134    -0.05600
C606        C  0.38131552  0.45047472  0.61496999     0.00400
C607        C  0.35991848  0.41018397  0.60925054    -0.08200
C608        C  0.32259902  0.39246809  0.60246994    -0.05600
C609        C  0.30638912  0.41337700  0.60017947     0.00300
C610        C  0.32773614  0.45325586  0.60185110    -0.08100
C611        C  0.31073394  0.47632979  0.59689735     0.62300
H612        H  0.38105583  0.50183783  0.61243402     0.13000
H613        H  0.30533584  0.36185589  0.60044210     0.13000
C614        C  0.37540928  0.38530362  0.61106006     0.62500
F615        F  0.33684194  0.01625072  0.59787145    -0.22700
F616        F  0.28607685  0.46788225  0.62620768    -0.20000
F617        F  0.29335671  0.46776209  0.56044258    -0.19700
F618        F  0.38308686  0.38191037  0.64987275    -0.19700
F619        F  0.40635258  0.40072140  0.58927013    -0.20100
F620        F  0.35144557  0.34918364  0.59560963    -0.22700
C621        C  0.11938948  0.47742843  0.62014849    -0.05600
C622        C  0.08197498  0.45893448  0.62030679     0.00400
C623        C  0.06006748  0.42022954  0.60878471    -0.08200
C624        C  0.07678139  0.40004222  0.60164437    -0.05600
C625        C  0.11415368  0.41790960  0.60546807     0.00300
C626        C  0.13602330  0.45730482  0.61383244    -0.08100
C627        C  0.17663706  0.47779984  0.61707608     0.62300
H628        H  0.13545730  0.50747742  0.62763571     0.13000
H629        H  0.06092446  0.37002400  0.59415036     0.13000
C630        C  0.01977220  0.40109862  0.60245148     0.62500
F631        F  0.19221986  0.01622735  0.62759834    -0.22700
F632        F  0.18982622  0.47288223  0.58223802    -0.20000
F633        F  0.18648231  0.46370618  0.64784786    -0.19700
F634        F  0.01293842  0.42129757  0.57578884    -0.19700
F635        F  0.00362031  0.39966577  0.63762081    -0.20100
F636        F  0.00418228  0.36439804  0.58759731    -0.22700
C637        C  0.10101691  0.19962775  0.85438305    -0.05600
C638        C  0.08020956  0.21517549  0.84822892     0.00400
C639        C  0.04239660  0.19166212  0.84844882    -0.08200
C640        C  0.02625394  0.15277515  0.85636532    -0.05600
C641        C  0.04724171  0.13753768  0.86498944     0.00300
C642        C  0.08540146  0.16120345  0.86274115    -0.08100
C643        C  0.11008696  0.14658639  0.86928259     0.60700
H644        H  0.12994735  0.21858076  0.85428432     0.13000
H645        H  0.99730715  0.13450674  0.85773020     0.13000
C646        C  0.01976474  0.20832636  0.84126753     0.62500
F647        F  0.14467879  0.17216756  0.85712280    -0.22700
F648        F  0.09741517  0.11312532  0.84789021    -0.20000
F649        F  0.11204079  0.14059166  0.90899999    -0.19700
F650        F  0.02825611  0.22596559  0.80528136    -0.19700
F651        F  0.02661739  0.23474709  0.87087538    -0.20100
F652        F  0.98342647  0.18075806  0.84064406    -0.22700
C653        C  0.31398542  0.44713957  0.84720966    -0.05600
C654        C  0.29711199  0.40822990  0.85310618     0.00400
C655        C  0.31737751  0.39273938  0.86415218    -0.08200
C656        C  0.35427538  0.41739111  0.87164949    -0.05600
C657        C  0.37102006  0.45676292  0.86851348     0.00300
C658        C  0.35099872  0.47208576  0.85453987    -0.08100
C659        C  0.36683652  0.01451173  0.85212230     0.62300
H660        H  0.29741725  0.45776031  0.83817792     0.13000
H661        H  0.37024005  0.40612233  0.88092290     0.13000
C662        C  0.29975081  0.35036046  0.86804015     0.62500
F663        F  0.34103815  0.02282764  0.84370607    -0.22700
F664        F  0.39078513  0.02735598  0.82149081    -0.20000
F665        F  0.38463551  0.03405836  0.88656514    -0.19700
F666        F  0.28275067  0.33222585  0.83265741    -0.19700
F667        F  0.27470879  0.33748012  0.89753762    -0.20100
F668        F  0.32454494  0.34081870  0.87732436    -0.22700
C669        C  0.05248928  0.42073909  0.86151126    -0.05600
C670        C  0.07241512  0.46076877  0.86538195     0.00400
C671        C  0.10995976  0.48101729  0.85717963    -0.08200
C672        C  0.12626882  0.46030762  0.84998399    -0.05600
C673        C  0.10669904  0.42073454  0.84980729     0.00300
C674        C  0.06915496  0.40045806  0.85367712    -0.08100
C675        C  0.04738654  0.35753228  0.85027513     0.62300
H676        H  0.02382988  0.40513886  0.86630617     0.13000
H677        H  0.15500898  0.47482041  0.84604856     0.13000
C678        C  0.13344752  0.02338133  0.85760369     0.62500
F679        F  0.01086374  0.34270920  0.85227717    -0.22700
F680        F  0.05716353  0.34284278  0.88056034    -0.20000
F681        F  0.05385932  0.34604141  0.81445767    -0.19700
F682        F  0.13660127  0.03811604  0.89535949    -0.19700
F683        F  0.11894771  0.03762227  0.83226981    -0.20100
F684        F  0.16776049  0.03587924  0.84494849    -0.22700
C685        C  0.42269343  0.10872117  0.74713130    -0.05600
C686        C  0.38532487  0.08635093  0.74175491     0.00400
C687        C  0.36861382  0.04765344  0.73100207    -0.08200
C688        C  0.39020446  0.03266443  0.72439571    -0.05600
C689        C  0.42807225  0.05559252  0.72700811     0.00300
C690        C  0.44460385  0.09425884  0.73958181    -0.08100
C691        C  0.48513127  0.12085876  0.74375593     0.62300
H692        H  0.43466218  0.13838755  0.75514422     0.13000
H693        H  0.37755048  0.00326959  0.71484609     0.13000
C694        C  0.32811705  0.02287072  0.72566119     0.62500
F695        F  0.49456393  0.15429816  0.76349499    -0.22700
F696        F  0.50008835  0.13000686  0.70673339    -0.20000
F697        F  0.99929453  0.10217328  0.76505846    -0.19700
F698        F  0.31704620  0.03582584  0.69487086    -0.19700
F699        F  0.31196379  0.02414627  0.75996916    -0.20100
F700        F  0.31660969  0.98544079  0.71723495    -0.22700
C701        C  0.41493753  0.32328239  0.75643407    -0.05600
C702        C  0.43056526  0.30391319  0.74188369     0.00400
C703        C  0.46463654  0.32394050  0.72428399    -0.08200
C704        C  0.48052493  0.36280245  0.71836736    -0.05600
C705        C  0.46287194  0.38105399  0.72934673     0.00300
C706        C  0.43103536  0.36209521  0.75100592    -0.08100
C707        C  0.41506400  0.38320574  0.76919922     0.62300
H708        H  0.38937433  0.30734159  0.77096743     0.13000
H709        H  0.50624336  0.37894076  0.70420122     0.13000
C710        C  0.48401918  0.30443637  0.71235818     0.62500
F711        F  0.38414554  0.35934508  0.78959613    -0.22700
F712        F  0.40653178  0.40009259  0.74012870    -0.20000
F713        F  0.43984627  0.41084650  0.79552699    -0.19700
F714        F  0.46553093  0.27863124  0.68169815    -0.19700
F715        F  0.48647507  0.28570343  0.74429066    -0.20100
F716        F  0.51851236  0.33009884  0.69994180    -0.22700
C717        C  0.15296548  0.10598471  0.71982327    -0.05600
C718        C  0.13547840  0.06660928  0.72139494     0.00400
C719        C  0.15465859  0.05006836  0.73587134    -0.08200
C720        C  0.19134739  0.07429076  0.74556612    -0.05600
C721        C  0.20895567  0.11336767  0.74142738     0.00300
C722        C  0.18956471  0.12973292  0.72962414    -0.08100
C723        C  0.20772126  0.17220408  0.72714365     0.62300
H724        H  0.13776497  0.11804164  0.71032630     0.13000
H725        H  0.20730019  0.06303436  0.75485211     0.13000
C726        C  0.13787557  0.00743632  0.73993275     0.62500
F727        F  0.18328468  0.18247129  0.71881878    -0.22700
F728        F  0.23267647  0.18542819  0.69759882    -0.20000
F729        F  0.22478877  0.18924117  0.76284350    -0.19700
F730        F  0.12254489  0.98868082  0.70445977    -0.19700
F731        F  0.11204513  0.49270644  0.76782047    -0.20100
F732        F  0.16304506  0.99885989  0.75098341    -0.22700
C733        C  0.38766537  0.04251019  0.97196450    -0.05600
C734        C  0.42541230  0.06380570  0.96914222     0.00400
C735        C  0.44525172  0.10234134  0.98088943    -0.08200
C736        C  0.42643831  0.11977468  0.99073921    -0.05600
C737        C  0.38877537  0.09920087  0.98975163     0.00300
C738        C  0.36884967  0.05985672  0.98157553    -0.08100
C739        C  0.32799820  0.03693775  0.98194546     0.62300
H740        H  0.37290095  0.01242095  0.96471638     0.13000
H741        H  0.44081888  0.14983528  0.99783694     0.13000
C742        C  0.48582294  0.12417081  0.98406167     0.62500
F743        F  0.31378114  0.99851016  0.97638395    -0.22700
F744        F  0.31455220  0.04842401  0.95214950    -0.20000
F745        F  0.31622868  0.04192059  0.51762714    -0.19700
F746        F  0.99960925  0.12753253  0.94624808    -0.19700
F747        F  0.99171367  0.10033130  0.51427365    -0.20100
F748        F  0.99901091  0.15732519  0.50761333    -0.22700
C749        C  0.44954407  0.37032120  0.48473822    -0.05600
C750        C  0.42640924  0.38360319  0.98148104     0.00400
C751        C  0.39046724  0.36154904  0.99406483    -0.08200
C752        C  0.37731047  0.32397616  0.00417105    -0.05600
C753        C  0.39941007  0.30932916  0.00258843     0.00300
C754        C  0.43658818  0.33319413  0.49516575    -0.08100
C755        C  0.46129494  0.31841909  0.49585551     0.62300
H756        H  0.47754783  0.38881074  0.47726311     0.13000
H757        H  0.34923504  0.30495906  0.01090119     0.13000
C758        C  0.36580681  0.37667887  0.99446916     0.62500
F759        F  0.49695629  0.34733975  0.49230112    -0.22700
F760        F  0.45222869  0.29262799  0.46490185    -0.20000
F761        F  0.45791076  0.30079651  0.53116898    -0.19700
F762        F  0.36345232  0.38814807  0.95714253    -0.19700
F763        F  0.37905968  0.40721788  0.02072312    -0.20100
F764        F  0.33144994  0.34953211  0.00588121    -0.22700
C765        C  0.14336689  0.10226447  0.98173058    -0.05600
C766        C  0.12340242  0.06235263  0.98100883     0.00400
C767        C  0.14139789  0.04331099  0.99020817    -0.08200
C768        C  0.17916321  0.06499482  0.99373822    -0.05600
C769        C  0.19879447  0.10424635  0.98931738     0.00300
C770        C  0.18062552  0.12538985  0.48384946    -0.08100
C771        C  0.20121543  0.16820440  0.48197458     0.62300
H772        H  0.12940125  0.11852964  0.47333479     0.13000
H773        H  0.19400400  0.05145857  0.99864563     0.13000
C774        C  0.12182543  0.00074927  0.99570813     0.62500
F775        F  0.17847759  0.18157870  0.48173502    -0.22700
F776        F  0.22088676  0.17958695  0.44794161    -0.20000
F777        F  0.22427491  0.18439185  0.51441381    -0.19700
F778        F  0.10832874  0.98166224  0.95979208    -0.19700
F779        F  0.09490451  0.48965548  0.02193709    -0.20100
F780        F  0.14499107  0.49035922  0.01017429    -0.22700
C781        C  0.36705059  0.18187080  0.89416174    -0.05600
C782        C  0.33672348  0.17951586  0.91063574     0.00400
C783        C  0.31758976  0.19038487  0.88631417    -0.08200
C784        C  0.32065857  0.18802504  0.84566988    -0.05600
C785        C  0.34308806  0.17720216  0.82880339     0.00300
C786        C  0.37119321  0.18102193  0.85342259    -0.08100
C787        C  0.40695433  0.18711597  0.84058479     0.62300
H788        H  0.38858722  0.18569912  0.91329871     0.13000
H789        H  0.30641847  0.19669603  0.82704479     0.13000
C790        C  0.29622278  0.20752234  0.89954501     0.62500
F791        F  0.43461965  0.22082701  0.85750038    -0.22700
F792        F  0.41201223  0.18940278  0.80044932    -0.20000
F793        F  0.40999677  0.15794074  0.85421401    -0.19700
F794        F  0.29704650  0.21375823  0.93971566    -0.19700
F795        F  0.26088507  0.18413434  0.88666718    -0.20100
F796        F  0.31024101  0.24232952  0.88220934    -0.22700
C797        C  0.32493872  0.19396563  0.59993384    -0.05600
C798        C  0.32436740  0.16488236  0.57832940     0.00400
C799        C  0.31523260  0.13154640  0.59856873    -0.08200
C800        C  0.32141255  0.13495455  0.63920429    -0.05600
C801        C  0.33164695  0.16851914  0.66041044     0.00300
C802        C  0.32781736  0.19637242  0.64094186    -0.08100
C803        C  0.32427445  0.22791171  0.65943733     0.62300
H804        H  0.32160192  0.21442736  0.58463375     0.13000
H805        H  0.31480732  0.10970614  0.65468610     0.13000
C806        C  0.29568141  0.09127160  0.58127613     0.62500
F807        F  0.35222470  0.26267416  0.64714369    -0.22700
F808        F  0.32388370  0.22914562  0.70003743    -0.20000
F809        F  0.29233379  0.22324905  0.64605157    -0.19700
F810        F  0.31643103  0.07602089  0.58730553    -0.19700
F811        F  0.28686380  0.08822247  0.54166096    -0.20100
F812        F  0.26385246  0.06952382  0.60098327    -0.22700
C813        C  0.33194021  0.67304490  0.45467827     0.30200
C814        C  0.32929899  0.66908654  0.03453788     0.30200
C815        C  0.34666463  0.65058698  0.47353509    -0.06000
C816        C  0.35228795  0.71058135  0.47778099    -0.06800
C817        C  0.29394635  0.65288216  0.47161448    -0.06600
C818        C  0.34728442  0.65054212  0.01423884    -0.06000
C819        C  0.35146428  0.70949292  0.01846074    -0.06800
C820        C  0.29333132  0.65220318  0.01245971    -0.06600
C821        C  0.36436644  0.63239248  0.02534848    -0.32000
N822        N  0.37124210  0.61906631  0.49263504     0.14500
C823        C  0.36078051  0.62994168  0.46071515    -0.32000
H824        H  0.36347517  0.62305438  0.43052287     0.16400
C825        C  0.37109450  0.74659359  0.03273593    -0.31000
N826        N  0.38262579  0.76947212  0.00136049     0.13200
C827        C  0.37159169  0.74777968  0.46784980    -0.31000
C828        C  0.25812097  0.63440027  0.02325965    -0.31300
N829        N  0.23715657  0.62394766  0.48986123     0.13700
H830        H  0.24804998  0.62876747  0.05291914     0.16300
C831        C  0.25874369  0.63450410  0.45807588    -0.31300
H832        H  0.24934592  0.62897356  0.42750047     0.16300
H833        H  0.37635408  0.75886763  0.43829512     0.16300
H834        H  0.37076168  0.62843522  0.05508291     0.16400
H835        H  0.37646996  0.75671322  0.06310519     0.16300
C836        C  0.33791269  0.66878182  0.20442254     0.30200
C837        C  0.34092887  0.67058818  0.28462931     0.30200
C838        C  0.34591795  0.64040578  0.22326759    -0.06000
C839        C  0.36760210  0.70593778  0.22360459    -0.06800
C840        C  0.30376955  0.65966689  0.22482280    -0.06600
C841        C  0.34662122  0.64059459  0.26466246    -0.06000
C842        C  0.36825765  0.70723319  0.26433829    -0.06800
C843        C  0.30455366  0.65986947  0.26545880    -0.06600
C844        C  0.35813763  0.61700705  0.27571827    -0.32000
N845        N  0.36606918  0.60430403  0.24260223     0.14500
C846        C  0.35973993  0.61923768  0.21074049    -0.32000
H847        H  0.36723337  0.61698582  0.18093747     0.16400
C848        C  0.39450983  0.74346338  0.27635513    -0.31000
N849        N  0.41036854  0.76369353  0.24374905     0.13200
C850        C  0.39413569  0.74101169  0.21134866    -0.31000
C851        C  0.26899326  0.64217384  0.27675824    -0.31300
N852        N  0.24804953  0.63467499  0.24400567     0.13700
H853        H  0.25878834  0.63355854  0.30620324     0.16300
C854        C  0.26890611  0.64412452  0.21204205    -0.31300
H855        H  0.25900706  0.63760455  0.18179779     0.16300
H856        H  0.39936921  0.75033544  0.18104515     0.16300
H857        H  0.36298080  0.61168195  0.30546489     0.16400
H858        H  0.40042790  0.75485896  0.30631328     0.16300
O859        O  0.06604232  0.50716063  0.46229144    -0.79900
O860        O  0.46609627  0.55380874  0.43006702    -0.79900
O861        O  0.04426642  0.59081357  0.40607796    -0.80000
O862        O  0.48445846  0.01873500  0.00738223    -0.79900
O863        O  0.00138051  0.57040737  0.36245121    -0.80000
O864        O  0.00636559  0.98254224  0.00818963    -0.79900
O865        O  0.43184212  0.51248084  0.47198295    -0.79900
O866        O  0.07563847  0.56303675  0.45005683    -0.80000
C867        C  0.08589158  0.54291306  0.46524738     1.09800
C868        C  0.44231669  0.54298943  0.45647568     1.09600
C869        C  0.02981794  0.59786288  0.37846914     1.09800
C870        C  0.49797039  0.00369013  0.02718007     1.09700
O871        O  0.46332520  0.93179889  0.43839980    -0.79900
O872        O  0.47766686  0.49277233  0.34361231    -0.80000
O873        O  0.06928591  0.01431465  0.38550330    -0.79900
O874        O  0.41835840  0.96930378  0.41387755    -0.79900
O875        O  0.42975256  0.01074677  0.36632821    -0.80000
O876        O  0.02242621  0.95840058  0.39601961    -0.79900
O877        O  0.43796268  0.94513095  0.48335001    -0.79900
O878        O  0.03455790  0.53879095  0.33874478    -0.80000
Co879      Co  0.01332146  0.97267685  0.44868334     1.51500
Co880      Co  0.47212823  0.51987778  0.38990722     1.51700
Co881      Co  0.05305338  0.55000705  0.39711201     1.51600
Co882      Co  0.45985094  0.99303478  0.45657042     1.51500
O883        O  0.00600651  0.51363101  0.42432429    -1.41900
C884        C  0.44178540  0.92110115  0.46634801     1.09700
C885        C  0.00509325  0.51218358  0.32227685     1.09800
C886        C  0.05326043  0.97865137  0.38174813     1.09700
C887        C  0.40805695  0.98031865  0.38360259     1.09700
O888        O  0.07794988  0.51360033  0.22367566    -0.79900
O889        O  0.47910472  0.55906131  0.19730796    -0.79900
O890        O  0.06362397  0.56968663  0.11354233    -0.80000
O891        O  0.47219792  0.98216404  0.25942423    -0.79900
O892        O  0.03987707  0.58772781  0.15680149    -0.80000
O893        O  0.03122068  0.02060198  0.25502349    -0.79900
O894        O  0.43414323  0.50227072  0.21033384    -0.79900
O895        O  0.08432271  0.55466880  0.18215819    -0.80000
C896        C  0.09809177  0.54412523  0.20831026     1.09800
C897        C  0.44877699  0.53798773  0.21209790     1.09600
C898        C  0.06078366  0.59583169  0.12868018     1.09800
C899        C  0.50247570  0.00474161  0.27768567     1.09700
O900        O  0.50490472  0.94595165  0.23631501    -0.79900
O901        O  0.49797656  0.53516110  0.08801596    -0.80000
O902        O  0.07740078  0.01256897  0.11699557    -0.79900
O903        O  0.43195152  0.95448229  0.14690827    -0.79900
O904        O  0.43768502  0.00823619  0.13324661    -0.80000
O905        O  0.04608291  0.96964410  0.16322869    -0.79900
O906        O  0.46381813  0.92871795  0.19177353    -0.79900
O907        O  0.01099896  0.49201537  0.09446384    -0.80000
Co908      Co  0.02887709  0.99265355  0.20625841     1.51500
Co909      Co  0.48968954  0.54548921  0.14579606     1.51700
Co910      Co  0.04379934  0.51997644  0.14145226     1.51600
Co911      Co  0.45452553  0.97008413  0.20006441     1.51500
O912        O  0.00274159  0.51178387  0.17494984    -1.41900
C913        C  0.47771791  0.92011745  0.21880057     1.09700
C914        C  0.00244976  0.51047616  0.07237508     1.09800
C915        C  0.06750422  0.98141300  0.13331747     1.09700
C916        C  0.41972510  0.97224801  0.13077007     1.09700
C917        C  0.16847336  0.85193956  0.30921693     0.30200
C918        C  0.16761793  0.85101847  0.38906915     0.30200
C919        C  0.15882959  0.87880644  0.32899485    -0.06000
C920        C  0.13999829  0.81352551  0.32708594    -0.06800
C921        C  0.20328034  0.86161786  0.32997662    -0.06600
C922        C  0.15907899  0.87898787  0.37042449    -0.06000
C923        C  0.13915052  0.81382709  0.36810906    -0.06800
C924        C  0.20294099  0.86173645  0.37032050    -0.06600
C925        C  0.13811549  0.89280941  0.38208947    -0.32000
N926        N  0.12644955  0.90202534  0.34969048     0.14500
C927        C  0.13745383  0.89204656  0.31719183    -0.32000
H928        H  0.12868811  0.89223277  0.28732183     0.16400
C929        C  0.11290913  0.77824309  0.37943737    -0.31000
N930        N  0.09865903  0.75552457  0.34672785     0.13200
C931        C  0.11480846  0.77665800  0.31448911    -0.31000
C932        C  0.23755539  0.87616782  0.38377328    -0.31300
N933        N  0.25865945  0.88406566  0.35203721     0.13700
H934        H  0.24715033  0.88291533  0.41414111     0.16300
C935        C  0.23815023  0.87571337  0.31887004    -0.31300
H936        H  0.24838455  0.88230549  0.28916669     0.16300
H937        H  0.10996891  0.76539039  0.28450073     0.16300
H938        H  0.13003212  0.89403701  0.41189624     0.16400
H939        H  0.10649843  0.76866588  0.40945760     0.16300
C940        C  0.17506140  0.84991519  0.05971186     0.30200
C941        C  0.17649986  0.84800044  0.13973115     0.30200
C942        C  0.15783338  0.86872598  0.08115832    -0.06000
C943        C  0.15355778  0.80976620  0.07727420    -0.06800
C944        C  0.21214673  0.86733051  0.07929602    -0.06600
C945        C  0.15898082  0.86818079  0.12207933    -0.06000
C946        C  0.15393454  0.80913516  0.11844509    -0.06800
C947        C  0.21291634  0.86684903  0.11992559    -0.06600
C948        C  0.14089075  0.88443608  0.13598183    -0.32000
N949        N  0.13000332  0.89569103  0.10465002     0.14500
C950        C  0.13880838  0.88498265  0.07094883    -0.32000
H951        H  0.13194691  0.88896189  0.04152743     0.16400
C952        C  0.13149983  0.77212170  0.12895484    -0.31000
N953        N  0.11912554  0.75005474  0.09570842     0.13200
C954        C  0.13159852  0.77247638  0.06391809    -0.31000
C955        C  0.24836083  0.88424046  0.13199882    -0.31300
N956        N  0.26888513  0.89513342  0.09936548     0.13700
H957        H  0.25851836  0.88875278  0.16207786     0.16300
C958        C  0.24709296  0.88466370  0.06689295    -0.31300
H959        H  0.25607359  0.88978383  0.03666087     0.16300
H960        H  0.12513553  0.76195144  0.03370780     0.16300
H961        H  0.13604716  0.88821120  0.16648462     0.16400
H962        H  0.12474347  0.76156945  0.15859858     0.16300
C963        C  0.17358181  0.82301541  0.24754776    -0.05600
C964        C  0.17379336  0.85379593  0.26542783     0.00400
C965        C  0.18872441  0.88776963  0.24369019    -0.08200
C966        C  0.18878317  0.88415984  0.20278241    -0.05600
C967        C  0.18003909  0.84997498  0.18403032     0.00300
C968        C  0.18041915  0.82251944  0.20754684    -0.08100
C969        C  0.19364683  0.79697940  0.19489636     0.62300
H970        H  0.17168331  0.80095219  0.26571486     0.13000
H971        H  0.19741514  0.90894912  0.18525057     0.13000
C972        C  0.20806441  0.92838493  0.26049503     0.62500
F973        F  0.22333563  0.80606048  0.21817151    -0.22700
F974        F  0.20419399  0.80110015  0.15614038    -0.20000
F975        F  0.16735012  0.75943463  0.20081195    -0.19700
F976        F  0.23836931  0.95139770  0.23874617    -0.19700
F977        F  0.22000592  0.93206697  0.29907788    -0.20100
F978        F  0.18583974  0.94217194  0.25756451    -0.22700
C979        C  0.17592440  0.82378845  0.49383962    -0.05600
C980        C  0.17729923  0.85343472  0.01565162     0.00400
C981        C  0.18614649  0.88659632  0.49540906    -0.08200
C982        C  0.18016993  0.88336138  0.45470317    -0.05600
C983        C  0.17136396  0.85036919  0.43313813     0.00300
C984        C  0.17473778  0.82235915  0.45278483    -0.08100
C985        C  0.17946070  0.79157860  0.43443761     0.62300
H986        H  0.17857235  0.80286892  0.50906603     0.13000
H987        H  0.18588537  0.90843186  0.43940335     0.13000
C988        C  0.20527360  0.92716635  0.01265698     0.62500
F989        F  0.21019176  0.79525330  0.45058109    -0.22700
F990        F  0.18314770  0.79255209  0.39411297    -0.20000
F991        F  0.15043773  0.75630461  0.44381456    -0.19700
F992        F  0.21517513  0.93057550  0.05193353    -0.19700
F993        F  0.18372952  0.94165727  0.00783608    -0.20100
F994        F  0.23686576  0.94920117  0.49262654    -0.22700
C995        C  0.05317247  0.64746472  0.10996866    -0.05600
C996        C  0.07607960  0.63360823  0.11151031     0.00400
C997        C  0.11234339  0.65726391  0.10059617    -0.08200
C998        C  0.12540289  0.69555289  0.09308689    -0.05600
C999        C  0.10300410  0.70987605  0.09527002     0.00300
C1000       C  0.06609235  0.68532061  0.10172510    -0.08100
C1001       C  0.04090003  0.69953534  0.10050877     0.62300
H1002       H  0.02507336  0.62860334  0.11682360     0.13000
H1003       H  0.15358972  0.71519464  0.08730595     0.13000
C1004       C  0.13723929  0.64271859  0.09843306     0.62500
F1005       F  0.00538337  0.67036804  0.10442204    -0.22700
F1006       F  0.04391821  0.71636035  0.06473828    -0.20000
F1007       F  0.04970136  0.72589251  0.13081516    -0.19700
F1008       F  0.12371609  0.61303106  0.07102814    -0.19700
F1009       F  0.14007806  0.63024921  0.13497530    -0.20100
F1010       F  0.17137423  0.67058017  0.08706878    -0.22700
C1011       C  0.36601611  0.97226101  0.10802446    -0.05600
C1012       C  0.38216259  0.95126820  0.11397176     0.00400
C1013       C  0.36064942  0.91102326  0.10814608    -0.08200
C1014       C  0.32332068  0.89348826  0.10176039    -0.05600
C1015       C  0.30731069  0.91461426  0.09974893     0.00300
C1016       C  0.32885457  0.95448196  0.10097972    -0.08100
C1017       C  0.31210168  0.97780349  0.09612960     0.62300
H1018       H  0.38231277  0.00285168  0.11114459     0.13000
H1019       H  0.30593374  0.86288266  0.09983246     0.13000
C1020       C  0.37606434  0.88606020  0.10928027     0.62500
F1021       F  0.33746261  0.51526452  0.09532816    -0.22700
F1022       F  0.28819738  0.97017163  0.12608365    -0.20000
F1023       F  0.29394047  0.96873177  0.06012176    -0.19700
F1024       F  0.38364485  0.88203130  0.14791083    -0.19700
F1025       F  0.40705507  0.90179540  0.08753320    -0.20100
F1026       F  0.35206631  0.85019313  0.09326109    -0.22700
C1027       C  0.11967258  0.97772118  0.12110119    -0.05600
C1028       C  0.08228842  0.95940719  0.11942256     0.00400
C1029       C  0.06060800  0.92082120  0.10740128    -0.08200
C1030       C  0.07739225  0.90054840  0.10143053    -0.05600
C1031       C  0.11458911  0.91816851  0.10713518     0.00300
C1032       C  0.13632918  0.95746041  0.11618159    -0.08100
C1033       C  0.17678267  0.97771046  0.12159796     0.62300
H1034       H  0.13557923  0.00766860  0.12909552     0.13000
H1035       H  0.06169840  0.87066389  0.09330011     0.13000
C1036       C  0.02055811  0.90197491  0.09922275     0.62500
F1037       F  0.19307587  0.51725494  0.12570698    -0.22700
F1038       F  0.19135513  0.97256988  0.08801467    -0.20000
F1039       F  0.18509363  0.96354872  0.15362466    -0.19700
F1040       F  0.01495462  0.92245160  0.07168661    -0.19700
F1041       F  0.00314173  0.90051565  0.13342677    -0.20100
F1042       F  0.00525638  0.86530487  0.08438792    -0.22700
C1043       C  0.10114740  0.69936309  0.35363490    -0.05600
C1044       C  0.08033649  0.71501308  0.34818457     0.00400
C1045       C  0.04254329  0.69160901  0.34895100    -0.08200
C1046       C  0.02642725  0.65273131  0.35679883    -0.05600
C1047       C  0.04745433  0.63744179  0.36490370     0.00300
C1048       C  0.08554953  0.66094567  0.36199847    -0.08100
C1049       C  0.11014715  0.64613115  0.36788511     0.60700
H1050       H  0.13007362  0.71823321  0.35308669     0.13000
H1051       H  0.99750498  0.63454125  0.35862614     0.13000
C1052       C  0.01992523  0.70840766  0.34252912     0.62500
F1053       F  0.14458788  0.67154794  0.35520789    -0.22700
F1054       F  0.09703981  0.61260747  0.34646381    -0.20000
F1055       F  0.11258250  0.64015174  0.40750781    -0.19700
F1056       F  0.02833201  0.72657195  0.30684201    -0.19700
F1057       F  0.02687593  0.73441282  0.37264799    -0.20100
F1058       F  0.98358350  0.68085569  0.34183575    -0.22700
C1059       C  0.31325950  0.94622484  0.34888261    -0.05600
C1060       C  0.29690231  0.90726696  0.35393730     0.00400
C1061       C  0.31762746  0.89201770  0.36378733    -0.08200
C1062       C  0.35452041  0.91696293  0.37104528    -0.05600
C1063       C  0.37072246  0.95634400  0.36890543     0.00300
C1064       C  0.35023039  0.97144555  0.35597431    -0.08100
C1065       C  0.36646122  0.51357930  0.35168225     0.62300
H1066       H  0.29632451  0.95661725  0.34063712     0.13000
H1067       H  0.37090445  0.90593115  0.37938311     0.13000
C1068       C  0.30047653  0.84962770  0.36677214     0.62500
F1069       F  0.34060582  0.52174142  0.34295806    -0.22700
F1070       F  0.39065318  0.52662450  0.32128405    -0.20000
F1071       F  0.38392593  0.53305958  0.38628893    -0.19700
F1072       F  0.28329457  0.83195787  0.33130042    -0.19700
F1073       F  0.27566165  0.83599085  0.39653136    -0.20100
F1074       F  0.32566266  0.84038508  0.37503644    -0.22700
C1075       C  0.05248354  0.92037945  0.36105472    -0.05600
C1076       C  0.07220786  0.96035165  0.36536110     0.00400
C1077       C  0.10988139  0.98084681  0.35767085    -0.08200
C1078       C  0.12647022  0.96033533  0.35093228    -0.05600
C1079       C  0.10701178  0.92075042  0.35036612     0.00300
C1080       C  0.06938172  0.90032649  0.35332696    -0.08100
C1081       C  0.04771154  0.85748065  0.34883798     0.62300
H1082       H  0.02373382  0.90463240  0.36524971     0.13000
H1083       H  0.15528533  0.97500274  0.34751852     0.13000
C1084       C  0.13340044  0.52325301  0.35766923     0.62500
F1085       F  0.01115277  0.84253739  0.35056636    -0.22700
F1086       F  0.05723072  0.84209506  0.37863199    -0.20000
F1087       F  0.05456813  0.84690582  0.31269365    -0.19700
F1088       F  0.13662086  0.53797731  0.39544466    -0.19700
F1089       F  0.11877854  0.53742633  0.33242131    -0.20100
F1090       F  0.16770999  0.53584595  0.34492902    -0.22700
C1091       C  0.42317931  0.60805209  0.24690918    -0.05600
C1092       C  0.38584453  0.58595369  0.24119107     0.00400
C1093       C  0.36894669  0.54731459  0.23008979    -0.08200
C1094       C  0.39032481  0.53204815  0.22373302    -0.05600
C1095       C  0.42817478  0.55471909  0.22670007     0.00300
C1096       C  0.44490607  0.59337920  0.23940187    -0.08100
C1097       C  0.48546281  0.61980112  0.24363108     0.62300
H1098       H  0.43528621  0.63770073  0.25510934     0.13000
H1099       H  0.37755891  0.50269768  0.21395936     0.13000
C1100       C  0.32851800  0.52293990  0.22391785     0.62500
F1101       F  0.49504677  0.65320387  0.26355864    -0.22700
F1102       F  0.50044163  0.62906324  0.20662082    -0.20000
F1103       F  0.99973260  0.60235095  0.26689533    -0.19700
F1104       F  0.31829092  0.53616336  0.19259899    -0.19700
F1105       F  0.31186854  0.52445363  0.25769042    -0.20100
F1106       F  0.31674936  0.48540527  0.21570738    -0.22700
C1107       C  0.41381068  0.82278742  0.25546605    -0.05600
C1108       C  0.43064288  0.80404926  0.24294422     0.00400
C1109       C  0.46547648  0.82461428  0.22726259    -0.08200
C1110       C  0.48104394  0.86338212  0.22092141    -0.05600
C1111       C  0.46237576  0.88104291  0.22983546     0.00300
C1112       C  0.42962092  0.86153886  0.24984041    -0.08100
C1113       C  0.41245647  0.88205727  0.26638816     0.62300
H1114       H  0.38763550  0.80639767  0.26865188     0.13000
H1115       H  0.50739188  0.87992553  0.20816894     0.13000
C1116       C  0.48597401  0.80572228  0.21805872     0.62500
F1117       F  0.38086161  0.85774466  0.28549376    -0.22700
F1118       F  0.40467494  0.89872926  0.23638518    -0.20000
F1119       F  0.43600461  0.90980002  0.29343841    -0.19700
F1120       F  0.46831243  0.77832903  0.18849654    -0.19700
F1121       F  0.48865122  0.78895903  0.25165060    -0.20100
F1122       F  0.52041304  0.83152545  0.20560253    -0.22700
C1123       C  0.15383655  0.60606966  0.22027619    -0.05600
C1124       C  0.13610767  0.56667576  0.22186946     0.00400
C1125       C  0.15511725  0.54988112  0.23615753    -0.08200
C1126       C  0.19183989  0.57388055  0.24582458    -0.05600
C1127       C  0.20968857  0.61296632  0.24160975     0.00300
C1128       C  0.19051783  0.62957996  0.22981544    -0.08100
C1129       C  0.20903424  0.67205769  0.22689694     0.62300
H1130       H  0.13878191  0.61831619  0.21086583     0.13000
H1131       H  0.20763371  0.56242686  0.25507141     0.13000
C1132       C  0.13812560  0.50718653  0.23990617     0.62500
F1133       F  0.18480638  0.68265585  0.21881414    -0.22700
F1134       F  0.23357229  0.68467572  0.19694424    -0.20000
F1135       F  0.22666099  0.68937228  0.26228796    -0.19700
F1136       F  0.12261144  0.48869192  0.20437361    -0.19700
F1137       F  0.11152200  0.99309096  0.26832982    -0.20100
F1138       F  0.16317741  0.49832169  0.25055813    -0.22700
C1139       C  0.38775137  0.54227617  0.47213310    -0.05600
C1140       C  0.42545808  0.56363457  0.46891737     0.00400
C1141       C  0.44534604  0.60218519  0.48061905    -0.08200
C1142       C  0.42655096  0.61956560  0.49076876    -0.05600
C1143       C  0.38888454  0.59888311  0.49027582     0.00300
C1144       C  0.36897104  0.55953182  0.48222090    -0.08100
C1145       C  0.32814803  0.53649875  0.48327993     0.62300
H1146       H  0.37297457  0.51217579  0.46493789     0.13000
H1147       H  0.44092820  0.64964927  0.49774538     0.13000
C1148       C  0.48593701  0.62405833  0.48350440     0.62500
F1149       F  0.31397499  0.49809831  0.47755242    -0.22700
F1150       F  0.31419202  0.54793316  0.45399705    -0.20000
F1151       F  0.31734961  0.54256419  0.01781675    -0.19700
F1152       F  0.99983968  0.62829333  0.44551023    -0.19700
F1153       F  0.99683675  0.60565277  0.00791603    -0.20100
F1154       F  0.00013748  0.66051835  0.99977948    -0.22700
C1155       C  0.44886108  0.87011880  0.98442303    -0.05600
C1156       C  0.42586070  0.88326765  0.48162517     0.00400
C1157       C  0.38952546  0.86079491  0.49282025    -0.08200
C1158       C  0.37634625  0.82322210  0.50299676    -0.05600
C1159       C  0.39867882  0.80883081  0.50249602     0.00300
C1160       C  0.43572228  0.83295420  0.99480788    -0.08100
C1161       C  0.46028798  0.81800029  0.99562688     0.62300
H1162       H  0.47694805  0.88857813  0.97725920     0.13000
H1163       H  0.34811093  0.80398518  0.50885965     0.13000
C1164       C  0.36447914  0.87541342  0.49142853     0.62500
F1165       F  0.49601444  0.84682229  0.99234789    -0.22700
F1166       F  0.45130557  0.79233510  0.96455837    -0.20000
F1167       F  0.45661934  0.80017752  0.03087159    -0.19700
F1168       F  0.36318046  0.88669558  0.45367698    -0.19700
F1169       F  0.37655706  0.90594586  0.51744039    -0.20100
F1170       F  0.32984132  0.84794064  0.50168661    -0.22700
C1171       C  0.14341720  0.60200223  0.48192760    -0.05600
C1172       C  0.12343181  0.56208954  0.48116330     0.00400
C1173       C  0.14145208  0.54297309  0.48987078    -0.08200
C1174       C  0.17921829  0.56463400  0.49317137    -0.05600
C1175       C  0.19883009  0.60389622  0.48887507     0.00300
C1176       C  0.18141349  0.62374650  0.98572010    -0.08100
C1177       C  0.20201547  0.66661434  0.98479431     0.62300
H1178       H  0.13018971  0.61731977  0.97770341     0.13000
H1179       H  0.19408305  0.55109204  0.49785216     0.13000
C1180       C  0.12190107  0.50037126  0.49514508     0.62500
F1181       F  0.17930947  0.68003169  0.98539842    -0.22700
F1182       F  0.22164764  0.67867682  0.95074840    -0.20000
F1183       F  0.22508196  0.68212529  0.01728794    -0.19700
F1184       F  0.10778465  0.48138218  0.45930117    -0.19700
F1185       F  0.09376154  0.99231191  0.52315941    -0.20100
F1186       F  0.14427748  0.99318042  0.51409120    -0.22700
C1187       C  0.36732428  0.68121122  0.39443228    -0.05600
C1188       C  0.33701800  0.67902511  0.41075842     0.00400
C1189       C  0.31813750  0.69012396  0.38632168    -0.08200
C1190       C  0.32134704  0.68778548  0.34569506    -0.05600
C1191       C  0.34365763  0.67672770  0.32896920     0.00300
C1192       C  0.37160362  0.68037486  0.35372088    -0.08100
C1193       C  0.40732483  0.68628904  0.34103602     0.62300
H1194       H  0.38878980  0.68500144  0.41365913     0.13000
H1195       H  0.30727267  0.69658487  0.32695815     0.13000
C1196       C  0.29701087  0.70758505  0.39941057     0.62500
F1197       F  0.43505700  0.71967662  0.35841881    -0.22700
F1198       F  0.41266999  0.68908518  0.30095093    -0.20000
F1199       F  0.40994600  0.65673682  0.35428916    -0.19700
F1200       F  0.29737937  0.71343141  0.43959885    -0.19700
F1201       F  0.26176995  0.68468849  0.38603156    -0.20100
F1202       F  0.31165030  0.74263334  0.38242806    -0.22700
C1203       C  0.32553104  0.69396164  0.10008947    -0.05600
C1204       C  0.32497144  0.66489194  0.07844097     0.00400
C1205       C  0.31588344  0.63157690  0.09870183    -0.08200
C1206       C  0.32207683  0.63501564  0.13934560    -0.05600
C1207       C  0.33249715  0.66865208  0.16053021     0.00300
C1208       C  0.32852929  0.69642068  0.14110521    -0.08100
C1209       C  0.32490886  0.72786919  0.15970026     0.62300
H1210       H  0.32194065  0.71427041  0.08485495     0.13000
H1211       H  0.31541226  0.60976338  0.15485667     0.13000
C1212       C  0.29640275  0.59128561  0.08145155     0.62500
F1213       F  0.35299540  0.76270126  0.14775826    -0.22700
F1214       F  0.32418719  0.72876640  0.20029324    -0.20000
F1215       F  0.29309441  0.72337949  0.14609924    -0.19700
F1216       F  0.31701623  0.57595113  0.08796767    -0.19700
F1217       F  0.28798892  0.58817521  0.04172314    -0.20100
F1218       F  0.26437512  0.56964735  0.10083987    -0.22700
C1219       C  0.33237757  0.67367824  0.95449966     0.30200
C1220       C  0.32869814  0.66847347  0.53471463     0.30200
C1221       C  0.34725364  0.65133051  0.97324557    -0.06000
C1222       C  0.35265083  0.71117329  0.97760363    -0.06800
C1223       C  0.29440486  0.65340549  0.97150977    -0.06600
C1224       C  0.34662609  0.64984833  0.51452894    -0.06000
C1225       C  0.35099765  0.70889514  0.51864215    -0.06800
C1226       C  0.29279063  0.65167193  0.51255710    -0.06600
C1227       C  0.36367574  0.63172552  0.52580453    -0.32000
N1228       N  0.37193040  0.61983460  0.99207987     0.14500
C1229       C  0.36142971  0.63079580  0.96026402    -0.32000
H1230       H  0.36410393  0.62401750  0.93002218     0.16400
C1231       C  0.37065889  0.74600393  0.53293707    -0.31000
N1232       N  0.38235720  0.76893366  0.50158660     0.13200
C1233       C  0.37182835  0.74833491  0.96763717    -0.31000
C1234       C  0.25756741  0.63392662  0.52327383    -0.31300
N1235       N  0.23763640  0.62435735  0.98989610     0.13700
H1236       H  0.24743487  0.62826930  0.55290725     0.16300
C1237       C  0.25916793  0.63493077  0.95806016    -0.31300
H1238       H  0.24970469  0.62933173  0.92750959     0.16300
H1239       H  0.37650292  0.75941413  0.93808075     0.16300
H1240       H  0.37009894  0.62790188  0.55557915     0.16400
H1241       H  0.37591511  0.75608472  0.56331926     0.16300
C1242       C  0.33765412  0.66845627  0.70446153     0.30200
C1243       C  0.34126277  0.67101983  0.78463421     0.30200
C1244       C  0.34595025  0.64035315  0.72346969    -0.06000
C1245       C  0.36740205  0.70577934  0.72320799    -0.06800
C1246       C  0.30361534  0.65938708  0.72507230    -0.06600
C1247       C  0.34700581  0.64096577  0.76488757    -0.06000
C1248       C  0.36836765  0.70748275  0.76391767    -0.06800
C1249       C  0.30467992  0.65993682  0.76569617    -0.06600
C1250       C  0.35898477  0.61780811  0.77607850    -0.32000
N1251       N  0.36680352  0.60492662  0.74301196     0.14500
C1252       C  0.35998656  0.61935714  0.71104425    -0.32000
H1253       H  0.36723324  0.61685104  0.68119752     0.16400
C1254       C  0.39470239  0.74382262  0.77546277    -0.31000
N1255       N  0.41024698  0.76373364  0.74258089     0.13200
C1256       C  0.39377109  0.74070474  0.71047628    -0.31000
C1257       C  0.26917497  0.64230170  0.77727982    -0.31300
N1258       N  0.24799945  0.63450771  0.74466152     0.13700
H1259       H  0.25917396  0.63395778  0.80683577     0.16300
C1260       C  0.26866056  0.64371036  0.71254645    -0.31300
H1261       H  0.25857191  0.63700822  0.68237316     0.16300
H1262       H  0.39862357  0.74968776  0.68005860     0.16300
H1263       H  0.36413061  0.61283964  0.80585201     0.16400
H1264       H  0.40086588  0.75552230  0.80530633     0.16300
O1265       O  0.06654319  0.50770487  0.96238107    -0.79900
O1266       O  0.46669735  0.55408100  0.92984796    -0.79900
O1267       O  0.04405599  0.59083713  0.90648164    -0.80000
O1268       O  0.48414909  0.01869747  0.50748154    -0.79900
O1269       O  0.00126247  0.57027815  0.86276200    -0.80000
O1270       O  0.00679671  0.98271134  0.50844263    -0.79900
O1271       O  0.43224056  0.51287036  0.97172056    -0.79900
O1272       O  0.07597420  0.56352969  0.95026404    -0.80000
C1273       C  0.08632419  0.54345680  0.96537928     1.09800
C1274       C  0.44280812  0.54336032  0.95610079     1.09600
C1275       C  0.02968327  0.59778568  0.87872558     1.09800
C1276       C  0.49778416  0.00381950  0.52734303     1.09700
O1277       O  0.46325596  0.93201800  0.93785736    -0.79900
O1278       O  0.47816207  0.49291029  0.84353752    -0.80000
O1279       O  0.06981212  0.01473502  0.88493313    -0.79900
O1280       O  0.41856978  0.96959776  0.91375919    -0.79900
O1281       O  0.43000857  0.01111339  0.86626525    -0.80000
O1282       O  0.02273920  0.95902302  0.89594278    -0.79900
O1283       O  0.43812406  0.94533606  0.98308988    -0.79900
O1284       O  0.03459964  0.53897355  0.83898133    -0.80000
Co1285     Co  0.01353724  0.97284948  0.94874691     1.51500
Co1286     Co  0.47263548  0.52003529  0.88977284     1.51700
Co1287     Co  0.05318881  0.55033281  0.89737324     1.51600
Co1288     Co  0.46008310  0.99321690  0.95643913     1.51500
O1289       O  0.00623695  0.51369098  0.92459444    -1.41900
C1290       C  0.44180094  0.92131781  0.96586670     1.09700
C1291       C  0.00517465  0.51226923  0.82252165     1.09800
C1292       C  0.05353876  0.97898943  0.88154791     1.09700
C1293       C  0.40828656  0.98070521  0.88355045     1.09700
O1294       O  0.07793651  0.51353602  0.72358673    -0.79900
O1295       O  0.47923232  0.55923111  0.69771013    -0.79900
O1296       O  0.06334118  0.56932480  0.61335787    -0.80000
O1297       O  0.47212709  0.98246792  0.75940125    -0.79900
O1298       O  0.03952881  0.58748228  0.65645010    -0.80000
O1299       O  0.03093556  0.01998145  0.75727415    -0.79900
O1300       O  0.43438562  0.50235220  0.71084754    -0.79900
O1301       O  0.08430847  0.55453214  0.68198718    -0.80000
C1302       C  0.09810264  0.54402984  0.70817262     1.09800
C1303       C  0.44899055  0.53806001  0.71267163     1.09600
C1304       C  0.06043772  0.59548009  0.62834188     1.09800
C1305       C  0.50247777  0.00494696  0.77757960     1.09700
O1306       O  0.50441921  0.94598343  0.73614952    -0.79900
O1307       O  0.49779217  0.53533201  0.58822060    -0.80000
O1308       O  0.07700908  0.01211891  0.61770620    -0.79900
O1309       O  0.43166450  0.95493440  0.64700396    -0.79900
O1310       O  0.43742328  0.00868118  0.63329551    -0.80000
O1311       O  0.04573989  0.96946348  0.66423391    -0.79900
O1312       O  0.46340970  0.92901980  0.69158875    -0.79900
O1313       O  0.01072205  0.49171770  0.59436116    -0.80000
Co1314     Co  0.02898000  0.99298792  0.70746473     1.51500
Co1315     Co  0.48966191  0.54567272  0.64606565     1.51700
Co1316     Co  0.04359525  0.51971159  0.64138784     1.51600
Co1317     Co  0.45430455  0.97044271  0.70010051     1.51500
O1318       O  0.00255166  0.51154930  0.67498934    -1.41900
C1319       C  0.47722464  0.92027805  0.71854782     1.09700
C1320       C  0.00209710  0.51013341  0.57227041     1.09800
C1321       C  0.06704583  0.98099777  0.63415919     1.09700
C1322       C  0.41941586  0.97268900  0.63090560     1.09700
C1323       C  0.16851979  0.85184329  0.80925041     0.30200
C1324       C  0.16753287  0.85090513  0.88912161     0.30200
C1325       C  0.15843382  0.87838680  0.82897698    -0.06000
C1326       C  0.14030218  0.81333561  0.82708675    -0.06800
C1327       C  0.20340773  0.86192190  0.83010914    -0.06600
C1328       C  0.15862978  0.87855834  0.87041455    -0.06000
C1329       C  0.13935746  0.81360084  0.86811017    -0.06800
C1330       C  0.20298866  0.86202092  0.87046122    -0.06600
C1331       C  0.13732395  0.89195926  0.88204800    -0.32000
N1332       N  0.12543424  0.90089909  0.84963447     0.14500
C1333       C  0.13668253  0.89116971  0.81715380    -0.32000
H1334       H  0.12791946  0.89130599  0.78726853     0.16400
C1335       C  0.11321368  0.77795093  0.87936137    -0.31000
N1336       N  0.09913577  0.75527708  0.84659991     0.13200
C1337       C  0.11529618  0.77645958  0.81440774    -0.31000
C1338       C  0.23762271  0.87676221  0.88401761    -0.31300
N1339       N  0.25881524  0.88487252  0.85233765     0.13700
H1340       H  0.24714207  0.88349301  0.91441256     0.16300
C1341       C  0.23835426  0.87634207  0.81910312    -0.31300
H1342       H  0.24863689  0.88295275  0.78942248     0.16300
H1343       H  0.11052417  0.76525190  0.78439811     0.16300
H1344       H  0.12927201  0.89320198  0.91186562     0.16400
H1345       H  0.10668328  0.76833834  0.90935513     0.16300
C1346       C  0.17466851  0.84952117  0.55962528     0.30200
C1347       C  0.17595037  0.84761786  0.63964830     0.30200
C1348       C  0.15743622  0.86838189  0.58096730    -0.06000
C1349       C  0.15305785  0.80937047  0.57718351    -0.06800
C1350       C  0.21171812  0.86689497  0.57930591    -0.06600
C1351       C  0.15847936  0.86781876  0.62189093    -0.06000
C1352       C  0.15338666  0.80873321  0.61836012    -0.06800
C1353       C  0.21240382  0.86645412  0.61992992    -0.06600
C1354       C  0.14040857  0.88413756  0.63568109    -0.32000
N1355       N  0.12971225  0.89552694  0.60429744     0.14500
C1356       C  0.13857979  0.88480989  0.57064714    -0.32000
H1357       H  0.13188303  0.88889942  0.54118646     0.16400
C1358       C  0.13103269  0.77168294  0.62886765    -0.31000
N1359       N  0.11861309  0.74963652  0.59558331     0.13200
C1360       C  0.13107468  0.77208867  0.56381798    -0.31000
C1361       C  0.24784067  0.88403013  0.63212185    -0.31300
N1362       N  0.26845353  0.89498581  0.59955917     0.13700
H1363       H  0.25793367  0.88866345  0.66223733     0.16300
C1364       C  0.24671754  0.88436663  0.56701751    -0.31300
H1365       H  0.25577445  0.88955164  0.53681408     0.16300
H1366       H  0.12463164  0.76157573  0.53358917     0.16300
H1367       H  0.13545590  0.88788125  0.66614783     0.16400
H1368       H  0.12449241  0.76111287  0.65848724     0.16300
C1369       C  0.17400680  0.82309874  0.74756868    -0.05600
C1370       C  0.17384043  0.85366738  0.76544793     0.00400
C1371       C  0.18821622  0.88749396  0.74360265    -0.08200
C1372       C  0.18802198  0.88376265  0.70268831    -0.05600
C1373       C  0.17948456  0.84962588  0.68395808     0.00300
C1374       C  0.18049162  0.82250193  0.70745310    -0.08100
C1375       C  0.19381946  0.79710217  0.69456265     0.62300
H1376       H  0.17250790  0.80124181  0.76575900     0.13000
H1377       H  0.19641144  0.90848327  0.68513876     0.13000
C1378       C  0.20730879  0.92812103  0.76031495     0.62500
F1379       F  0.22389188  0.80659284  0.71733581    -0.22700
F1380       F  0.20383113  0.80093311  0.65562818    -0.20000
F1381       F  0.16778653  0.75955862  0.70091031    -0.19700
F1382       F  0.23739122  0.95133033  0.73833909    -0.19700
F1383       F  0.21952190  0.93198327  0.79880685    -0.20100
F1384       F  0.18476203  0.94152428  0.75763310    -0.22700
C1385       C  0.17630440  0.82415768  0.99397043    -0.05600
C1386       C  0.17703972  0.85311093  0.51557994     0.00400
C1387       C  0.18610551  0.88678084  0.99538903    -0.08200
C1388       C  0.17992983  0.88335838  0.95470182    -0.05600
C1389       C  0.17128179  0.85036278  0.93321389     0.00300
C1390       C  0.17495623  0.82257477  0.95292533    -0.08100
C1391       C  0.17982037  0.79186731  0.93465992     0.62300
H1392       H  0.17915321  0.80338591  0.00924080     0.13000
H1393       H  0.18540302  0.90831338  0.93933733     0.13000
C1394       C  0.20538699  0.92694201  0.51278799     0.62500
F1395       F  0.21057690  0.79565108  0.95087481    -0.22700
F1396       F  0.18358303  0.79284899  0.89434746    -0.20000
F1397       F  0.15084481  0.75656348  0.94404288    -0.19700
F1398       F  0.21488892  0.93022166  0.55218156    -0.19700
F1399       F  0.18408736  0.94167853  0.50758799    -0.20100
F1400       F  0.23651631  0.94956045  0.99215792    -0.22700
C1401       C  0.05269289  0.64682436  0.60882044    -0.05600
C1402       C  0.07573659  0.63317626  0.61102032     0.00400
C1403       C  0.11215580  0.65702829  0.60078942    -0.08200
C1404       C  0.12520277  0.69533782  0.59344693    -0.05600
C1405       C  0.10262996  0.70947209  0.59504440     0.00300
C1406       C  0.06559499  0.68469688  0.60064878    -0.08100
C1407       C  0.04024755  0.69868088  0.59863884     0.62300
H1408       H  0.02449491  0.62778702  0.61514053     0.13000
H1409       H  0.15347411  0.71512250  0.58821997     0.13000
C1410       C  0.13718335  0.64263021  0.59913729     0.62500
F1411       F  0.00471620  0.66936477  0.60203588    -0.22700
F1412       F  0.04370061  0.71547781  0.56275016    -0.20000
F1413       F  0.04849270  0.72500082  0.62882139    -0.19700
F1414       F  0.12414776  0.61316990  0.57150724    -0.19700
F1415       F  0.13948834  0.62988149  0.63572436    -0.20100
F1416       F  0.17147722  0.67067381  0.58842261    -0.22700
C1417       C  0.36549465  0.97248907  0.60847658    -0.05600
C1418       C  0.38181136  0.95163887  0.61421560     0.00400
C1419       C  0.36043219  0.91139647  0.60830248    -0.08200
C1420       C  0.32308291  0.89370434  0.60194382    -0.05600
C1421       C  0.30690257  0.91466683  0.60006522     0.00300
C1422       C  0.32830092  0.95454876  0.60146299    -0.08100
C1423       C  0.31136167  0.97770727  0.59680417     0.62300
H1424       H  0.38168423  0.00307494  0.61173368     0.13000
H1425       H  0.30581354  0.86309100  0.59992321     0.13000
C1426       C  0.37600801  0.88657841  0.60938397     0.62500
F1427       F  0.33604466  0.51490103  0.59899817    -0.22700
F1428       F  0.28757866  0.96998587  0.62691912    -0.20000
F1429       F  0.29302398  0.96854073  0.56090205    -0.19700
F1430       F  0.38347291  0.88242382  0.64802054    -0.19700
F1431       F  0.40709940  0.90253150  0.58778997    -0.20100
F1432       F  0.35217739  0.85075505  0.59316828    -0.22700
C1433       C  0.11916060  0.97736372  0.62113383    -0.05600
C1434       C  0.08174006  0.95888632  0.62015566     0.00400
C1435       C  0.06007394  0.92025705  0.60823958    -0.08200
C1436       C  0.07695827  0.90015096  0.60172001    -0.05600
C1437       C  0.11423202  0.91794659  0.60678021     0.00300
C1438       C  0.13592314  0.95726041  0.61570177    -0.08100
C1439       C  0.17644800  0.97769609  0.62046987     0.62300
H1440       H  0.13506731  0.00735062  0.62894385     0.13000
H1441       H  0.06128072  0.87022533  0.59377168     0.13000
C1442       C  0.01988721  0.90110138  0.60091607     0.62500
F1443       F  0.19252961  0.51634927  0.62414829    -0.22700
F1444       F  0.19068138  0.97292521  0.58638653    -0.20000
F1445       F  0.18528926  0.96341465  0.65194595    -0.19700
F1446       F  0.01354858  0.92146503  0.57395984    -0.19700
F1447       F  0.00302828  0.89935973  0.63566077    -0.20100
F1448       F  0.00463062  0.86451001  0.58583335    -0.22700
C1449       C  0.10135505  0.69897252  0.85355399    -0.05600
C1450       C  0.08068997  0.71476891  0.84797168     0.00400
C1451       C  0.04288268  0.69150366  0.84847546    -0.08200
C1452       C  0.02658801  0.65265330  0.85651706    -0.05600
C1453       C  0.04746548  0.63724382  0.86485291     0.00300
C1454       C  0.08557034  0.66053248  0.86189396    -0.08100
C1455       C  0.10996500  0.64543489  0.86757162     0.60700
H1456       H  0.13029788  0.71772596  0.85308133     0.13000
H1457       H  0.99765246  0.63459282  0.85830349     0.13000
C1458       C  0.02044470  0.70843120  0.84154823     0.62500
F1459       F  0.14441969  0.67069734  0.85482875    -0.22700
F1460       F  0.09661821  0.61194066  0.84602671    -0.20000
F1461       F  0.11244075  0.63930112  0.90713386    -0.19700
F1462       F  0.02922502  0.72654770  0.80582628    -0.19700
F1463       F  0.02723702  0.73450954  0.87152333    -0.20100
F1464       F  0.98407232  0.68097816  0.84053060    -0.22700
C1465       C  0.31340757  0.94710241  0.84982225    -0.05600
C1466       C  0.29704472  0.90807534  0.85432420     0.00400
C1467       C  0.31775367  0.89266882  0.86355936    -0.08200
C1468       C  0.35468315  0.91749237  0.87066728    -0.05600
C1469       C  0.37091912  0.95690334  0.86898398     0.00300
C1470       C  0.35041635  0.97220302  0.85675427    -0.08100
C1471       C  0.36788457  0.51431902  0.84865499     0.62300
H1472       H  0.29647326  0.95761915  0.84204066     0.13000
H1473       H  0.37106623  0.90634039  0.87856177     0.13000
C1474       C  0.30051360  0.85023744  0.86615039     0.62500
F1475       F  0.34253402  0.52274965  0.83824129    -0.22700
F1476       F  0.39255361  0.52634580  0.81877555    -0.20000
F1477       F  0.38493293  0.53447078  0.88315488    -0.19700
F1478       F  0.28303064  0.83282461  0.83071622    -0.19700
F1479       F  0.27593117  0.83649122  0.89614465    -0.20100
F1480       F  0.32567063  0.84082023  0.87379173    -0.22700
C1481       C  0.05202538  0.92014666  0.86113407    -0.05600
C1482       C  0.07206435  0.96017803  0.86525618     0.00400
C1483       C  0.10971293  0.98029485  0.85763475    -0.08200
C1484       C  0.12596163  0.95945984  0.85084768    -0.05600
C1485       C  0.10622716  0.91987604  0.85031418     0.00300
C1486       C  0.06861890  0.89974590  0.85345315    -0.08100
C1487       C  0.04669211  0.85687012  0.84912314     0.62300
H1488       H  0.02329028  0.90464504  0.86540420     0.13000
H1489       H  0.15475510  0.97387317  0.84741241     0.13000
C1490       C  0.13352719  0.52411286  0.85695566     0.62500
F1491       F  0.01019299  0.84215378  0.85119314    -0.22700
F1492       F  0.05627932  0.84142528  0.87879396    -0.20000
F1493       F  0.05319493  0.84608043  0.81289599    -0.19700
F1494       F  0.13703851  0.53896200  0.89473540    -0.19700
F1495       F  0.11861569  0.53811304  0.83188287    -0.20100
F1496       F  0.16773144  0.53673589  0.84383256    -0.22700
C1497       C  0.42355761  0.60787435  0.74866531    -0.05600
C1498       C  0.38634622  0.58630203  0.74162723     0.00400
C1499       C  0.36937286  0.54787278  0.72955892    -0.08200
C1500       C  0.39058973  0.53242010  0.72324239    -0.05600
C1501       C  0.42836379  0.55467208  0.72741249     0.00300
C1502       C  0.44512160  0.59294067  0.74140420    -0.08100
C1503       C  0.48558300  0.61858511  0.74747930     0.62300
H1504       H  0.43577164  0.63733173  0.75777433     0.13000
H1505       H  0.37782951  0.50332364  0.71256116     0.13000
C1506       C  0.32904230  0.52388766  0.72241148     0.62500
F1507       F  0.49495011  0.65130001  0.76869399    -0.22700
F1508       F  0.50196106  0.62916252  0.71126211    -0.20000
F1509       F  0.00007862  0.60344270  0.76519346    -0.19700
F1510       F  0.31966310  0.53753504  0.69075315    -0.19700
F1511       F  0.31181297  0.52534415  0.75568937    -0.20100
F1512       F  0.31709107  0.48631906  0.71411859    -0.22700
C1513       C  0.41384840  0.82282055  0.75504276    -0.05600
C1514       C  0.43035507  0.80406864  0.74137164     0.00400
C1515       C  0.46474159  0.82463164  0.72455982    -0.08200
C1516       C  0.48030382  0.86347692  0.71890631    -0.05600
C1517       C  0.46196547  0.88116829  0.72916069     0.00300
C1518       C  0.42955860  0.86159929  0.74976284    -0.08100
C1519       C  0.41265278  0.88205568  0.76721882     0.62300
H1520       H  0.38799231  0.80642910  0.76890402     0.13000
H1521       H  0.50639604  0.88009122  0.70561872     0.13000
C1522       C  0.48482654  0.80573274  0.71327931     0.62500
F1523       F  0.38123120  0.85761210  0.78654613    -0.22700
F1524       F  0.40463976  0.89906221  0.73779202    -0.20000
F1525       F  0.43650486  0.90953935  0.79429418    -0.19700
F1526       F  0.46652202  0.77912336  0.68320153    -0.19700
F1527       F  0.48802267  0.78806562  0.74576007    -0.20100
F1528       F  0.51904976  0.83169294  0.70035556    -0.22700
C1529       C  0.15383135  0.60601152  0.72089130    -0.05600
C1530       C  0.13614620  0.56657377  0.72183943     0.00400
C1531       C  0.15512463  0.54970035  0.73603296    -0.08200
C1532       C  0.19180831  0.57364016  0.74597239    -0.05600
C1533       C  0.20961164  0.61279755  0.74248073     0.00300
C1534       C  0.19040440  0.62949158  0.73111942    -0.08100
C1535       C  0.20872390  0.67206399  0.72988213     0.62300
H1536       H  0.13876677  0.61832829  0.71176028     0.13000
H1537       H  0.20761039  0.56211216  0.75493527     0.13000
C1538       C  0.13812580  0.50698229  0.73947310     0.62500
F1539       F  0.18465196  0.68263811  0.72079516    -0.22700
F1540       F  0.23482441  0.68622770  0.70155304    -0.20000
F1541       F  0.22445234  0.68796737  0.76640760    -0.19700
F1542       F  0.12282757  0.48874201  0.70377897    -0.19700
F1543       F  0.11184763  0.99339249  0.76832992    -0.20100
F1544       F  0.16312376  0.49806046  0.75018309    -0.22700
C1545       C  0.38819462  0.54291549  0.97085757    -0.05600
C1546       C  0.42594877  0.56411837  0.96819966     0.00400
C1547       C  0.44586520  0.60261595  0.98015457    -0.08200
C1548       C  0.42712167  0.62006058  0.99030717    -0.05600
C1549       C  0.38946001  0.59952560  0.98952111     0.00300
C1550       C  0.36947210  0.56024275  0.98100307    -0.08100
C1551       C  0.32863269  0.53736705  0.98168474     0.62300
H1552       H  0.37336636  0.51288026  0.96332587     0.13000
H1553       H  0.44155256  0.65010073  0.99753008     0.13000
C1554       C  0.48644687  0.62441747  0.98316103     0.62500
F1555       F  0.31434583  0.49895641  0.97584724    -0.22700
F1556       F  0.31501680  0.54902449  0.95224982    -0.20000
F1557       F  0.31710559  0.54175266  0.51953009    -0.19700
F1558       F  0.00017245  0.62774218  0.94673424    -0.19700
F1559       F  0.99704576  0.60612318  0.50652826    -0.20100
F1560       F  0.00028955  0.66101291  0.49886971    -0.22700
C1561       C  0.44872089  0.86974857  0.48496694    -0.05600
C1562       C  0.42595268  0.88356321  0.98109395     0.00400
C1563       C  0.38964324  0.86114006  0.99231488    -0.08200
C1564       C  0.37652338  0.82364691  0.00266742    -0.05600
C1565       C  0.39890777  0.80931936  0.00222739     0.00300
C1566       C  0.43553109  0.83252174  0.49526198    -0.08100
C1567       C  0.46012886  0.81761453  0.49638085     0.62300
H1568       H  0.47683401  0.88822204  0.47792205     0.13000
H1569       H  0.34830447  0.80441854  0.00861459     0.13000
C1570       C  0.36461226  0.87577800  0.99081516     0.62500
F1571       F  0.49584543  0.84642599  0.49298437    -0.22700
F1572       F  0.45116012  0.79171708  0.46555573    -0.20000
F1573       F  0.45648577  0.80007307  0.53181451    -0.19700
F1574       F  0.36362265  0.88737753  0.95312477    -0.19700
F1575       F  0.37651687  0.90611347  0.01706773    -0.20100
F1576       F  0.32988069  0.84822403  0.00067248    -0.22700
C1577       C  0.14391670  0.60255355  0.98210510    -0.05600
C1578       C  0.12389267  0.56264093  0.98124881     0.00400
C1579       C  0.14187527  0.54348011  0.98994641    -0.08200
C1580       C  0.17964776  0.56507171  0.99314899    -0.05600
C1581       C  0.19930345  0.60434792  0.98898956     0.00300
C1582       C  0.18090921  0.62323927  0.48537066    -0.08100
C1583       C  0.20146254  0.66608059  0.48392340     0.62300
H1584       H  0.12966083  0.61673281  0.47749491     0.13000
H1585       H  0.19447016  0.55146613  0.99770903     0.13000
C1586       C  0.12226812  0.50089475  0.99535158     0.62500
F1587       F  0.17872994  0.67947010  0.48415431    -0.22700
F1588       F  0.22101430  0.67776601  0.44980461    -0.20000
F1589       F  0.22459160  0.68197239  0.51632443    -0.19700
F1590       F  0.10826741  0.48183624  0.95951335    -0.19700
F1591       F  0.09408901  0.98942566  0.02179154    -0.20100
F1592       F  0.14444989  0.99035848  0.01118881    -0.22700
C1593       C  0.36800579  0.68238655  0.89434709    -0.05600
C1594       C  0.33749667  0.67980089  0.91061638     0.00400
C1595       C  0.31849530  0.69076048  0.88619640    -0.08200
C1596       C  0.32181254  0.68854265  0.84558216    -0.05600
C1597       C  0.34421803  0.67758488  0.82891002     0.00300
C1598       C  0.37229925  0.68154869  0.85364235    -0.08100
C1599       C  0.40810761  0.68773040  0.84094102     0.62300
H1600       H  0.38951241  0.68631412  0.91360676     0.13000
H1601       H  0.30766063  0.69722800  0.82681482     0.13000
C1602       C  0.29705481  0.70785291  0.89930998     0.62500
F1603       F  0.43571279  0.72141659  0.85797045    -0.22700
F1604       F  0.41326587  0.69013045  0.80081898    -0.20000
F1605       F  0.41110024  0.65852681  0.85456698    -0.19700
F1606       F  0.29762036  0.71389894  0.93948521    -0.19700
F1607       F  0.26177986  0.68453366  0.88619913    -0.20100
F1608       F  0.31120690  0.74274729  0.88212246    -0.22700
C1609       C  0.32479215  0.69327750  0.60018919    -0.05600
C1610       C  0.32427161  0.66422384  0.57859625     0.00400
C1611       C  0.31528628  0.63095503  0.59891149    -0.08200
C1612       C  0.32164272  0.63448845  0.63952654    -0.05600
C1613       C  0.33198930  0.66812685  0.66062295     0.00300
C1614       C  0.32787968  0.69580750  0.64118512    -0.08100
C1615       C  0.32434907  0.72733461  0.65972852     0.62300
H1616       H  0.32121694  0.71358151  0.58491359     0.13000
H1617       H  0.31521371  0.60933545  0.65510000     0.13000
C1618       C  0.29576521  0.59063675  0.58177061     0.62500
F1619       F  0.35239326  0.76210795  0.64758458    -0.22700
F1620       F  0.32380167  0.72839797  0.70032713    -0.20000
F1621       F  0.29248515  0.72281072  0.64626488    -0.19700
F1622       F  0.31639046  0.57531968  0.58829322    -0.19700
F1623       F  0.28725974  0.58745766  0.54205730    -0.20100
F1624       F  0.26379606  0.56905116  0.60127230    -0.22700
C1625       C  0.83211870  0.17393676  0.45512677     0.30200
C1626       C  0.82889211  0.16882955  0.03524762     0.30200
C1627       C  0.84700969  0.15167647  0.47393235    -0.06000
C1628       C  0.85234886  0.21147264  0.47822600    -0.06800
C1629       C  0.79414419  0.15358772  0.47216475    -0.06600
C1630       C  0.84668692  0.15010522  0.01493010    -0.06000
C1631       C  0.85118552  0.20920738  0.01910185    -0.06800
C1632       C  0.79287519  0.15205621  0.01330205    -0.06600
C1633       C  0.86382276  0.13201568  0.02604310    -0.32000
N1634       N  0.87121221  0.11986946  0.49291627     0.14500
C1635       C  0.86091712  0.13091887  0.46102251    -0.32000
H1636       H  0.86352428  0.12401947  0.43079989     0.16400
C1637       C  0.87106492  0.24632159  0.03334010    -0.31000
N1638       N  0.88270126  0.26919898  0.00195302     0.13200
C1639       C  0.87162244  0.24865973  0.46832572    -0.31000
C1640       C  0.75768328  0.13431236  0.02421092    -0.31300
N1641       N  0.73736971  0.12443204  0.49057083     0.13700
H1642       H  0.74768334  0.12870904  0.05389563     0.16300
C1643       C  0.75889686  0.13494213  0.45874319    -0.31300
H1644       H  0.74940467  0.12914670  0.42819214     0.16300
H1645       H  0.87630701  0.25977927  0.43878372     0.16300
H1646       H  0.87042678  0.12827717  0.05576717     0.16400
H1647       H  0.87650844  0.25644331  0.06370845     0.16300
C1648       C  0.83783600  0.16871589  0.20496365     0.30200
C1649       C  0.84110496  0.17083836  0.28513109     0.30200
C1650       C  0.84617766  0.14061330  0.22386356    -0.06000
C1651       C  0.86743449  0.20597478  0.22393812    -0.06800
C1652       C  0.80366763  0.15941778  0.22540861    -0.06600
C1653       C  0.84707197  0.14098768  0.26526362    -0.06000
C1654       C  0.86822404  0.20748465  0.26464766    -0.06800
C1655       C  0.80453447  0.15968601  0.26602636    -0.06600
C1656       C  0.85879527  0.11756310  0.27632400    -0.32000
N1657       N  0.86648090  0.10463373  0.24317669     0.14500
C1658       C  0.85995068  0.11941501  0.21131272    -0.32000
H1659       H  0.86717621  0.11694819  0.18144921     0.16400
C1660       C  0.89458058  0.24378128  0.27637830    -0.31000
N1661       N  0.91032511  0.26379881  0.24359818     0.13200
C1662       C  0.89393524  0.24090982  0.21139194    -0.31000
C1663       C  0.76893573  0.14177970  0.27737180    -0.31300
N1664       N  0.74790211  0.13414019  0.24464925     0.13700
H1665       H  0.75879261  0.13321399  0.30684461     0.16300
C1666       C  0.76875554  0.14369933  0.21267104    -0.31300
H1667       H  0.75884001  0.13720465  0.18243114     0.16300
H1668       H  0.89899261  0.24998255  0.18100402     0.16300
H1669       H  0.86381236  0.11239655  0.30609298     0.16400
H1670       H  0.90071853  0.25534211  0.30627123     0.16300
O1671       O  0.56629595  0.00777561  0.46230864    -0.79900
O1672       O  0.96135984  0.05664018  0.41990185    -0.79900
O1673       O  0.54379238  0.09087277  0.40622513    -0.80000
O1674       O  0.98456678  0.51888830  0.00754018    -0.79900
O1675       O  0.50086654  0.07018295  0.36262107    -0.80000
O1676       O  0.50663021  0.48230230  0.00832123    -0.79900
O1677       O  0.93714274  0.01914124  0.47013779    -0.79900
O1678       O  0.57575337  0.06360308  0.45008262    -0.80000
C1679       C  0.58608530  0.04353833  0.46527762     1.09800
C1680       C  0.94245895  0.04662524  0.45104792     1.09600
C1681       C  0.52930730  0.09774172  0.37851309     1.09800
C1682       C  0.99817807  0.50400198  0.02742446     1.09700
O1683       O  0.96297977  0.43198741  0.43812130    -0.79900
O1684       O  0.97544868  0.00060796  0.33687621    -0.80000
O1685       O  0.57003278  0.51502514  0.38513245    -0.79900
O1686       O  0.91842691  0.46989814  0.41384281    -0.79900
O1687       O  0.93011109  0.51120086  0.36604687    -0.80000
O1688       O  0.52288239  0.45937897  0.39604390    -0.79900
O1689       O  0.93786262  0.44555783  0.48313747    -0.79900
O1690       O  0.53423438  0.03886191  0.33885560    -0.80000
Co1691     Co  0.51378664  0.47312166  0.44893046     1.51500
Co1692     Co  0.97735718  0.02757919  0.38579638     1.51700
Co1693     Co  0.55288378  0.05031512  0.39722262     1.51600
Co1694     Co  0.96003922  0.49343717  0.45642446     1.51500
O1695       O  0.50591384  0.01368585  0.42452474    -1.41900
C1696       C  0.94156103  0.42144228  0.46616803     1.09700
C1697       C  0.50481017  0.01214281  0.32240889     1.09800
C1698       C  0.55366392  0.47928663  0.38161938     1.09700
C1699       C  0.90823697  0.48095931  0.38350700     1.09700
O1700       O  0.57765507  0.01337208  0.22374237    -0.79900
O1701       O  0.97863837  0.05896115  0.19708465    -0.79900
O1702       O  0.56341755  0.06917482  0.11337593    -0.80000
O1703       O  0.97252217  0.48209126  0.25939082    -0.79900
O1704       O  0.53963846  0.08757688  0.15628082    -0.80000
O1705       O  0.53099458  0.51982754  0.25740572    -0.79900
O1706       O  0.93360173  0.00184357  0.20902405    -0.79900
O1707       O  0.58417318  0.05435646  0.18206001    -0.80000
C1708       C  0.59788755  0.04384446  0.20833008     1.09800
C1709       C  0.94825384  0.03753115  0.21166198     1.09600
C1710       C  0.56058641  0.09542729  0.12822757     1.09800
C1711       C  0.00278040  0.50480298  0.27759087     1.09700
O1712       O  0.00524539  0.44609217  0.23611997    -0.79900
O1713       O  0.99789016  0.03562492  0.08762910    -0.80000
O1714       O  0.57738758  0.51214859  0.11757059    -0.79900
O1715       O  0.93229557  0.45486045  0.14694860    -0.79900
O1716       O  0.93780697  0.50856969  0.13370728    -0.80000
O1717       O  0.54662384  0.46979533  0.16454250    -0.79900
O1718       O  0.96411900  0.42883831  0.19160510    -0.79900
O1719       O  0.51069404  0.99158738  0.09433523    -0.80000
Co1720     Co  0.52926764  0.49296388  0.20757035     1.51500
Co1721     Co  0.98946410  0.04575746  0.14537207     1.51700
Co1722     Co  0.54350257  0.01955917  0.14141891     1.51600
Co1723     Co  0.95484185  0.47016618  0.20009203     1.51500
O1724       O  0.50249686  0.01162170  0.17488067    -1.41900
C1725       C  0.97804526  0.42026143  0.21862071     1.09700
C1726       C  0.50223919  0.01009415  0.07216333     1.09800
C1727       C  0.56777516  0.48125304  0.13431310     1.09700
C1728       C  0.91981232  0.47257179  0.13126349     1.09700
C1729       C  0.66810526  0.35174836  0.30865566     0.30200
C1730       C  0.66726466  0.35085860  0.38851634     0.30200
C1731       C  0.65801652  0.37828450  0.32843049    -0.06000
C1732       C  0.63991878  0.31323790  0.32656199    -0.06800
C1733       C  0.70308844  0.36195132  0.32942939    -0.06600
C1734       C  0.65830115  0.37848038  0.36987535    -0.06000
C1735       C  0.63904416  0.31355576  0.36756880    -0.06800
C1736       C  0.70271580  0.36205258  0.36978284    -0.06600
C1737       C  0.63705419  0.39191194  0.38160938    -0.32000
N1738       N  0.62510308  0.40084909  0.34924762     0.14500
C1739       C  0.63628966  0.39112567  0.31669883    -0.32000
H1740       H  0.62749464  0.39129983  0.28684364     0.16400
C1741       C  0.61278406  0.27798212  0.37890432    -0.31000
N1742       N  0.59857675  0.25524684  0.34620579     0.13200
C1743       C  0.61475916  0.27636017  0.31396754    -0.31000
C1744       C  0.73743177  0.37721816  0.38330499    -0.31300
N1745       N  0.75866004  0.38556010  0.35161781     0.13700
H1746       H  0.74695067  0.38401985  0.41369376     0.16300
C1747       C  0.73812417  0.37679218  0.31839483    -0.31300
H1748       H  0.74837047  0.38345422  0.28870103     0.16300
H1749       H  0.60987225  0.26510339  0.28397585     0.16300
H1750       H  0.62911110  0.39320828  0.41146941     0.16400
H1751       H  0.60624025  0.26845400  0.40893136     0.16300
C1752       C  0.67519477  0.34952693  0.05900957     0.30200
C1753       C  0.67589927  0.34738128  0.13903378     0.30200
C1754       C  0.65775587  0.36828331  0.08015205    -0.06000
C1755       C  0.65354599  0.30930077  0.07643198    -0.06800
C1756       C  0.71211439  0.36694502  0.07901377    -0.06600
C1757       C  0.65852572  0.36760760  0.12108077    -0.06000
C1758       C  0.65354089  0.30856331  0.11760644    -0.06800
C1759       C  0.71249495  0.36633247  0.11963852    -0.06600
C1760       C  0.64063883  0.38419013  0.13469721    -0.32000
N1761       N  0.63027813  0.39580393  0.10321983     0.14500
C1762       C  0.63917691  0.38498839  0.06965971    -0.32000
H1763       H  0.63269460  0.38920406  0.04015433     0.16400
C1764       C  0.63121568  0.27148469  0.12797977    -0.31000
N1765       N  0.61924404  0.24948513  0.09467270     0.13200
C1766       C  0.63187422  0.27199825  0.06295255    -0.31000
C1767       C  0.74784251  0.38396455  0.13216234    -0.31300
N1768       N  0.76870728  0.39516649  0.09980259     0.13700
H1769       H  0.75770870  0.38846774  0.16236473     0.16300
C1770       C  0.74722092  0.38461593  0.06705871    -0.31300
H1771       H  0.75651485  0.38994677  0.03694743     0.16300
H1772       H  0.62571699  0.26152313  0.03272197     0.16300
H1773       H  0.63563104  0.38801739  0.16511915     0.16400
H1774       H  0.62434057  0.26084383  0.15760037     0.16300
C1775       C  0.67336636  0.32277835  0.24705227    -0.05600
C1776       C  0.67332057  0.35345620  0.26483819     0.00400
C1777       C  0.68780868  0.38725213  0.24291711    -0.08200
C1778       C  0.68774852  0.38346866  0.20202526    -0.05600
C1779       C  0.67916377  0.34929152  0.18336813     0.00300
C1780       C  0.67994202  0.32209508  0.20697876    -0.08100
C1781       C  0.69316449  0.29653894  0.19431386     0.62300
H1782       H  0.67177157  0.30091385  0.26530865     0.13000
H1783       H  0.69628312  0.40819394  0.18442973     0.13000
C1784       C  0.70678100  0.42791037  0.25950286     0.62500
F1785       F  0.72301474  0.30579325  0.21737913    -0.22700
F1786       F  0.70348272  0.30042459  0.15548745    -0.20000
F1787       F  0.66694205  0.25902250  0.20050560    -0.19700
F1788       F  0.73695246  0.45110557  0.23763440    -0.19700
F1789       F  0.71884015  0.43192265  0.29807655    -0.20100
F1790       F  0.68417077  0.44120932  0.25648796    -0.22700
C1791       C  0.67609643  0.32383461  0.49319300    -0.05600
C1792       C  0.67783757  0.35321833  0.01498628     0.00400
C1793       C  0.68617269  0.38657358  0.49478739    -0.08200
C1794       C  0.67989669  0.38323511  0.45412604    -0.05600
C1795       C  0.67107880  0.35023223  0.43257081     0.00300
C1796       C  0.67469641  0.32234174  0.45214381    -0.08100
C1797       C  0.67940170  0.29158695  0.43369806     0.62300
H1798       H  0.67884255  0.30296225  0.50838432     0.13000
H1799       H  0.68538614  0.40822696  0.43881902     0.13000
C1800       C  0.70606813  0.42700737  0.01211774     0.62500
F1801       F  0.71003938  0.29509706  0.44990117    -0.22700
F1802       F  0.68326522  0.29276917  0.39339385    -0.20000
F1803       F  0.65029393  0.25630116  0.44289090    -0.19700
F1804       F  0.71543723  0.43029996  0.05156163    -0.19700
F1805       F  0.68481030  0.44176437  0.00670929    -0.20100
F1806       F  0.73686625  0.44916979  0.49174688    -0.22700
C1807       C  0.55307750  0.14682710  0.10823276    -0.05600
C1808       C  0.57601297  0.13306421  0.11072642     0.00400
C1809       C  0.61244645  0.15672469  0.10046574    -0.08200
C1810       C  0.62564722  0.19503127  0.09287664    -0.05600
C1811       C  0.60317525  0.20930560  0.09419337     0.00300
C1812       C  0.56611897  0.18466751  0.09974948    -0.08100
C1813       C  0.54091468  0.19881235  0.09742399     0.62300
H1814       H  0.52486249  0.12792907  0.11457319     0.13000
H1815       H  0.65394663  0.21469669  0.08767347     0.13000
C1816       C  0.63730296  0.14210150  0.09900888     0.62500
F1817       F  0.50529877  0.16954471  0.10024706    -0.22700
F1818       F  0.54488439  0.21595576  0.06164466    -0.20000
F1819       F  0.54888246  0.22489899  0.12777457    -0.19700
F1820       F  0.62415258  0.11253516  0.07149459    -0.19700
F1821       F  0.63948227  0.12940513  0.13567352    -0.20100
F1822       F  0.67165951  0.16996316  0.08828566    -0.22700
C1823       C  0.86580329  0.47245810  0.10927379    -0.05600
C1824       C  0.88203160  0.45150477  0.11502358     0.00400
C1825       C  0.86047277  0.41121788  0.10942931    -0.08200
C1826       C  0.82317702  0.39368845  0.10281673    -0.05600
C1827       C  0.80714346  0.41476587  0.10066440     0.00300
C1828       C  0.82861978  0.45463435  0.10221931    -0.08100
C1829       C  0.81176216  0.47787845  0.09755940     0.62300
H1830       H  0.88207609  0.50304793  0.11243300     0.13000
H1831       H  0.80578134  0.36308618  0.10084325     0.13000
C1832       C  0.87575275  0.38614762  0.11123734     0.62500
F1833       F  0.83672681  0.01575233  0.09797674    -0.22700
F1834       F  0.78754127  0.46976278  0.12728681    -0.20000
F1835       F  0.79391556  0.46917599  0.06138255    -0.19700
F1836       F  0.88361950  0.38291105  0.15002350    -0.19700
F1837       F  0.90653157  0.40127200  0.08919972    -0.20100
F1838       F  0.85155125  0.34997900  0.09606338    -0.22700
C1839       C  0.61991735  0.47770099  0.12063330    -0.05600
C1840       C  0.58248602  0.45917966  0.12019933     0.00400
C1841       C  0.56075783  0.42061076  0.10812981    -0.08200
C1842       C  0.57756701  0.40049225  0.10120524    -0.05600
C1843       C  0.61488847  0.41831726  0.10563557     0.00300
C1844       C  0.63666201  0.45766890  0.11434821    -0.08100
C1845       C  0.67727782  0.47824795  0.11776053     0.62300
H1846       H  0.63587665  0.50768815  0.12842989     0.13000
H1847       H  0.56180729  0.37054770  0.09335110     0.13000
C1848       C  0.52057748  0.40158406  0.10094388     0.62500
F1849       F  0.69246430  0.01640874  0.12610886    -0.22700
F1850       F  0.69062206  0.47372645  0.08283527    -0.20000
F1851       F  0.68709380  0.46392250  0.14832463    -0.19700
F1852       F  0.51427707  0.42208527  0.07413702    -0.19700
F1853       F  0.50381427  0.39983016  0.13575829    -0.20100
F1854       F  0.50520569  0.36502287  0.08574744    -0.22700
C1855       C  0.60081037  0.19893039  0.35304872    -0.05600
C1856       C  0.58012246  0.21472941  0.34768083     0.00400
C1857       C  0.54231694  0.19144231  0.34840122    -0.08200
C1858       C  0.52607488  0.15260019  0.35649775    -0.05600
C1859       C  0.54699587  0.13719236  0.36459148     0.00300
C1860       C  0.58507264  0.16048191  0.36133762    -0.08100
C1861       C  0.60948999  0.14536573  0.36658756     0.60700
H1862       H  0.62974709  0.21767816  0.35239463     0.13000
H1863       H  0.49715520  0.13454341  0.35849920     0.13000
C1864       C  0.51981685  0.20831854  0.34163411     0.62500
F1865       F  0.64379870  0.17056269  0.35341207    -0.22700
F1866       F  0.59590636  0.11180707  0.34509783    -0.20000
F1867       F  0.61236559  0.13934383  0.40609125    -0.19700
F1868       F  0.52860589  0.22662350  0.30602193    -0.19700
F1869       F  0.52650931  0.23421758  0.37177228    -0.20100
F1870       F  0.48346544  0.18079224  0.34049168    -0.22700
C1871       C  0.81355134  0.44764881  0.34878317    -0.05600
C1872       C  0.79692920  0.40862463  0.35366303     0.00400
C1873       C  0.81742088  0.39311982  0.36360036    -0.08200
C1874       C  0.85430070  0.41782878  0.37117369    -0.05600
C1875       C  0.87081075  0.45724212  0.36895306     0.00300
C1876       C  0.85057538  0.47262954  0.35595681    -0.08100
C1877       C  0.86847650  0.01140598  0.35148053     0.62300
H1878       H  0.79681389  0.45827829  0.34050765     0.13000
H1879       H  0.87045464  0.40656432  0.37969023     0.13000
C1880       C  0.80004455  0.35066209  0.36614718     0.62500
F1881       F  0.84376521  0.02072133  0.34064677    -0.22700
F1882       F  0.89251600  0.02165915  0.32114022    -0.20000
F1883       F  0.88655812  0.03278389  0.38485327    -0.19700
F1884       F  0.78343568  0.33346518  0.33030693    -0.19700
F1885       F  0.77471015  0.33674060  0.39536650    -0.20100
F1886       F  0.82497108  0.34116271  0.37485315    -0.22700
C1887       C  0.55189834  0.42031732  0.36135830    -0.05600
C1888       C  0.57201145  0.46036524  0.36514946     0.00400
C1889       C  0.60957085  0.48037429  0.35711665    -0.08200
C1890       C  0.62568615  0.45943928  0.35009348    -0.05600
C1891       C  0.60593108  0.41985849  0.35003012     0.00300
C1892       C  0.56838091  0.39980041  0.35378915    -0.08100
C1893       C  0.54640644  0.35686329  0.35059993     0.62300
H1894       H  0.52322601  0.40488380  0.36604303     0.13000
H1895       H  0.65442463  0.47378377  0.34623722     0.13000
C1896       C  0.63364366  0.02410110  0.35791602     0.62500
F1897       F  0.50990907  0.34228082  0.35229649    -0.22700
F1898       F  0.55588297  0.34220047  0.38119281    -0.20000
F1899       F  0.55295589  0.34508847  0.31500862    -0.19700
F1900       F  0.63690949  0.03894746  0.39563575    -0.19700
F1901       F  0.61902691  0.03822773  0.33258930    -0.20100
F1902       F  0.66791455  0.03658979  0.34511276    -0.22700
C1903       C  0.92265170  0.10650528  0.25012059    -0.05600
C1904       C  0.88565621  0.08560498  0.24157930     0.00400
C1905       C  0.86872809  0.04764578  0.22772102    -0.08200
C1906       C  0.88985314  0.03212916  0.22110417    -0.05600
C1907       C  0.92750028  0.05387030  0.22675112     0.00300
C1908       C  0.94412958  0.09150408  0.24263644    -0.08100
C1909       C  0.98440919  0.11641175  0.25058480     0.62300
H1910       H  0.93486135  0.13559949  0.26059361     0.13000
H1911       H  0.87720905  0.00347832  0.20907048     0.13000
C1912       C  0.82854618  0.02414881  0.21929840     0.62500
F1913       F  0.99343785  0.14821417  0.27343385    -0.22700
F1914       F  0.00211188  0.12854901  0.21523428    -0.20000
F1915       F  0.49996081  0.10386031  0.26438926    -0.19700
F1916       F  0.81997286  0.03932322  0.18842118    -0.19700
F1917       F  0.81057462  0.02411309  0.25257996    -0.20100
F1918       F  0.81663351  0.98693156  0.20908066    -0.22700
C1919       C  0.91463914  0.32323691  0.25625016    -0.05600
C1920       C  0.93078896  0.30415263  0.24248787     0.00400
C1921       C  0.96510346  0.32441495  0.22546437    -0.08200
C1922       C  0.98086190  0.36325773  0.21953639    -0.05600
C1923       C  0.96274012  0.38122037  0.22965782     0.00300
C1924       C  0.93050744  0.36199410  0.25062235    -0.08100
C1925       C  0.91389750  0.38277604  0.26798905     0.62300
H1926       H  0.88885745  0.30709515  0.27031484     0.13000
H1927       H  0.00686075  0.37960186  0.20599524     0.13000
C1928       C  0.98481912  0.30515120  0.21403207     0.62500
F1929       F  0.88270385  0.35869209  0.28785649    -0.22700
F1930       F  0.90560256  0.39940941  0.23840963    -0.20000
F1931       F  0.93809067  0.41057674  0.29458311    -0.19700
F1932       F  0.96666506  0.27925057  0.18334589    -0.19700
F1933       F  0.98717020  0.28656958  0.24617101    -0.20100
F1934       F  0.01936921  0.33097117  0.20187961    -0.22700
C1935       C  0.65375082  0.10577250  0.22067308    -0.05600
C1936       C  0.63592640  0.06634873  0.22203625     0.00400
C1937       C  0.65480954  0.04946456  0.23650619    -0.08200
C1938       C  0.69155178  0.07336056  0.24625057    -0.05600
C1939       C  0.70950572  0.11248262  0.24225535     0.00300
C1940       C  0.69038828  0.12920307  0.23060212    -0.08100
C1941       C  0.70889433  0.17174139  0.22848602     0.62300
H1942       H  0.63877322  0.11811752  0.21130815     0.13000
H1943       H  0.70726106  0.06180165  0.25547665     0.13000
C1944       C  0.63762585  0.00676768  0.24049898     0.62500
F1945       F  0.68473578  0.18241155  0.22031106    -0.22700
F1946       F  0.73393702  0.18499867  0.19903047    -0.20000
F1947       F  0.72593614  0.18840797  0.26430813    -0.19700
F1948       F  0.62220321  0.98815205  0.20498747    -0.19700
F1949       F  0.61164723  0.49296381  0.26815108    -0.20100
F1950       F  0.66250757  0.99778121  0.25152910    -0.22700
C1951       C  0.88715494  0.04371037  0.46780798    -0.05600
C1952       C  0.92486354  0.06542915  0.46576829     0.00400
C1953       C  0.94460504  0.10220183  0.48256720    -0.08200
C1954       C  0.92587894  0.11925031  0.49393250    -0.05600
C1955       C  0.88830623  0.09923221  0.49047682     0.00300
C1956       C  0.86829605  0.06044889  0.47938853    -0.08100
C1957       C  0.82743501  0.03777184  0.47822675     0.62300
H1958       H  0.87260874  0.01415346  0.45825400     0.13000
H1959       H  0.94027876  0.14856821  0.50413429     0.13000
C1960       C  0.98477158  0.12198607  0.48978841     0.62500
F1961       F  0.81318610  0.99941963  0.47187282    -0.22700
F1962       F  0.81513952  0.05011855  0.44808444    -0.20000
F1963       F  0.81690997  0.04228182  0.01904944    -0.19700
F1964       F  0.50009445  0.12734782  0.44829259    -0.19700
F1965       F  0.49636571  0.10507647  0.00789989    -0.20100
F1966       F  0.49985888  0.16010181  0.00032694    -0.22700
C1967       C  0.94909891  0.36992859  0.98511653    -0.05600
C1968       C  0.92587080  0.38381254  0.48177092     0.00400
C1969       C  0.88977617  0.36158478  0.49381236    -0.08200
C1970       C  0.87670575  0.32408967  0.50414527    -0.05600
C1971       C  0.89898028  0.30963859  0.50310824     0.00300
C1972       C  0.93591362  0.33273195  0.99550847    -0.08100
C1973       C  0.96050371  0.31781867  0.99671689     0.62300
H1974       H  0.97719006  0.38836474  0.97796357     0.13000
H1975       H  0.84857257  0.30495111  0.51054699     0.13000
C1976       C  0.86487130  0.37640672  0.49327909     0.62500
F1977       F  0.99620643  0.34658426  0.99306549    -0.22700
F1978       F  0.95139570  0.29168442  0.96610407    -0.20000
F1979       F  0.95700590  0.30055563  0.03230346    -0.19700
F1980       F  0.86294015  0.38763832  0.45568187    -0.19700
F1981       F  0.87756083  0.40702407  0.51932088    -0.20100
F1982       F  0.83040618  0.34910474  0.50423451    -0.22700
C1983       C  0.64369299  0.10266791  0.48197813    -0.05600
C1984       C  0.62363518  0.06275252  0.48129176     0.00400
C1985       C  0.64157058  0.04361037  0.49036624    -0.08200
C1986       C  0.67932960  0.06521167  0.49393358    -0.05600
C1987       C  0.69903439  0.10446505  0.48961209     0.00300
C1988       C  0.68086758  0.12357696  0.98637109    -0.08100
C1989       C  0.70139653  0.16642433  0.98511944     0.62300
H1990       H  0.62969404  0.11707733  0.97766011     0.13000
H1991       H  0.69411997  0.05161399  0.49879579     0.13000
C1992       C  0.62195048  0.00101028  0.49564234     0.62500
F1993       F  0.67864840  0.17978331  0.98616730    -0.22700
F1994       F  0.72049232  0.17821540  0.95070346    -0.20000
F1995       F  0.72493655  0.18224189  0.01719750    -0.19700
F1996       F  0.60829290  0.98208780  0.45967715    -0.19700
F1997       F  0.59416765  0.49057318  0.52284883    -0.20100
F1998       F  0.64441739  0.49120426  0.51251379    -0.22700
C1999       C  0.86778288  0.18243245  0.39495987    -0.05600
C2000       C  0.83725719  0.17987331  0.41119774     0.00400
C2001       C  0.81801216  0.19037629  0.38660742    -0.08200
C2002       C  0.82128253  0.18793215  0.34602695    -0.05600
C2003       C  0.84388349  0.17719670  0.32944304     0.00300
C2004       C  0.87203039  0.18136190  0.35424609    -0.08100
C2005       C  0.90790118  0.18762873  0.34157052     0.62300
H2006       H  0.88931788  0.18647309  0.41425454     0.13000
H2007       H  0.80698838  0.19639720  0.32720191     0.13000
C2008       C  0.79627903  0.20717541  0.39950279     0.62500
F2009       F  0.93544377  0.22142617  0.35847695    -0.22700
F2010       F  0.91302556  0.18990990  0.30144462    -0.20000
F2011       F  0.91110302  0.15858128  0.35530076    -0.19700
F2012       F  0.79704319  0.21364906  0.43961837    -0.19700
F2013       F  0.76098933  0.18338033  0.38664232    -0.20100
F2014       F  0.80996030  0.24180397  0.38188705    -0.22700
C2015       C  0.82529515  0.19381551  0.10073509    -0.05600
C2016       C  0.82464422  0.16468280  0.07912856     0.00400
C2017       C  0.81557235  0.13138021  0.09941917    -0.08200
C2018       C  0.82187347  0.13487981  0.14002426    -0.05600
C2019       C  0.83233960  0.16854323  0.16113272     0.00300
C2020       C  0.82833163  0.19630066  0.14173037    -0.08100
C2021       C  0.82480986  0.22782196  0.16032280     0.62300
H2022       H  0.82179206  0.21417757  0.08548014     0.13000
H2023       H  0.81528312  0.10966989  0.15558494     0.13000
C2024       C  0.79610837  0.09106498  0.08225478     0.62500
F2025       F  0.85301490  0.26262553  0.14846573    -0.22700
F2026       F  0.82396420  0.22863943  0.20091296    -0.20000
F2027       F  0.79309356  0.22351208  0.14664085    -0.19700
F2028       F  0.81687523  0.07588298  0.08859646    -0.19700
F2029       F  0.78745342  0.08786246  0.04258494    -0.20100
F2030       F  0.76421648  0.06935756  0.10186535    -0.22700
C2031       C  0.83177193  0.17325102  0.95522164     0.30200
C2032       C  0.82905797  0.16937708  0.53518251     0.30200
C2033       C  0.84651339  0.15075855  0.97394324    -0.06000
C2034       C  0.85227937  0.21082346  0.97824131    -0.06800
C2035       C  0.79384917  0.15318271  0.97235622    -0.06600
C2036       C  0.84706981  0.15095054  0.51491717    -0.06000
C2037       C  0.85121119  0.20977586  0.51910169    -0.06800
C2038       C  0.79308114  0.15244410  0.51312291    -0.06600
C2039       C  0.86399870  0.13273815  0.52612991    -0.32000
N2040       N  0.87120879  0.11927410  0.99279043     0.14500
C2041       C  0.86058021  0.13010764  0.96097254    -0.32000
H2042       H  0.86316291  0.12323375  0.93073453     0.16400
C2043       C  0.87102923  0.24684045  0.53343069    -0.31000
N2044       N  0.88259052  0.26976479  0.50209825     0.13200
C2045       C  0.87167785  0.24800050  0.96824474    -0.31000
C2046       C  0.75786716  0.13458424  0.52393945    -0.31300
N2047       N  0.73711791  0.12424571  0.99090061     0.13700
H2048       H  0.74781212  0.12900348  0.55359818     0.16300
C2049       C  0.75858136  0.13473029  0.95901476    -0.31300
H2050       H  0.74903951  0.12901023  0.92848439     0.16300
H2051       H  0.87633869  0.25905040  0.93867374     0.16300
H2052       H  0.87042997  0.12882976  0.55586105     0.16400
H2053       H  0.87652412  0.25690531  0.56381507     0.16300
C2054       C  0.83759337  0.16868545  0.70502777     0.30200
C2055       C  0.84058026  0.17058754  0.78521802     0.30200
C2056       C  0.84561783  0.14034729  0.72393842    -0.06000
C2057       C  0.86725446  0.20586242  0.72418465    -0.06800
C2058       C  0.80341593  0.15955310  0.72536905    -0.06600
C2059       C  0.84634773  0.14061472  0.76533588    -0.06000
C2060       C  0.86788946  0.20723505  0.76489744    -0.06800
C2061       C  0.80416774  0.15976214  0.76601007    -0.06600
C2062       C  0.85790642  0.11707576  0.77645994    -0.32000
N2063       N  0.86573238  0.10423275  0.74336922     0.14500
C2064       C  0.85936555  0.11909576  0.71146523    -0.32000
H2065       H  0.86679904  0.11674615  0.68167074     0.16400
C2066       C  0.89416489  0.24350034  0.77683645    -0.31000
N2067       N  0.91003593  0.26367960  0.74418747     0.13200
C2068       C  0.89377444  0.24090366  0.71185759    -0.31000
C2069       C  0.76854613  0.14171790  0.77724629    -0.31300
N2070       N  0.74758537  0.13405001  0.74446405     0.13700
H2071       H  0.75833860  0.13303001  0.80667513     0.16300
C2072       C  0.76851355  0.14369757  0.71254001    -0.31300
H2073       H  0.75865918  0.13713096  0.68227775     0.16300
H2074       H  0.89891122  0.25011728  0.68152762     0.16300
H2075       H  0.86285543  0.11188637  0.80624270     0.16400
H2076       H  0.90015149  0.25492748  0.80678391     0.16300
O2077       O  0.56626409  0.00746558  0.96204177    -0.79900
O2078       O  0.96613034  0.05394897  0.93006788    -0.79900
O2079       O  0.54402818  0.09087264  0.90623825    -0.80000
O2080       O  0.98435413  0.51884347  0.50745752    -0.79900
O2081       O  0.50110261  0.07037158  0.86267137    -0.80000
O2082       O  0.50663877  0.48266263  0.50849487    -0.79900
O2083       O  0.93150309  0.01234391  0.97152488    -0.79900
O2084       O  0.57576438  0.06334748  0.94998820    -0.80000
C2085       C  0.58599875  0.04322094  0.96523275     1.09800
C2086       C  0.94213935  0.04299334  0.95623973     1.09600
C2087       C  0.52954256  0.09785730  0.87862960     1.09800
C2088       C  0.99780435  0.50374589  0.52728223     1.09700
O2089       O  0.96358427  0.43189997  0.93852353    -0.79900
O2090       O  0.97764007  0.99307506  0.84343612    -0.80000
O2091       O  0.57017765  0.51467138  0.88504013    -0.79900
O2092       O  0.91863509  0.46947186  0.91405192    -0.79900
O2093       O  0.93014881  0.51096549  0.86653069    -0.80000
O2094       O  0.52308188  0.45893696  0.89589557    -0.79900
O2095       O  0.93833087  0.44529016  0.98353573    -0.79900
O2096       O  0.53438756  0.03897169  0.83872565    -0.80000
Co2097     Co  0.51382173  0.47273297  0.94875206     1.51500
Co2098     Co  0.97213539  0.02010351  0.88977586     1.51700
Co2099     Co  0.55302695  0.05026036  0.89708987     1.51600
Co2100     Co  0.96022289  0.49311472  0.95666794     1.51500
O2101       O  0.50606296  0.01373133  0.92434640    -1.41900
C2102       C  0.94212148  0.42124712  0.96653399     1.09700
C2103       C  0.50491327  0.01232329  0.82229249     1.09800
C2104       C  0.55389351  0.47894719  0.88151016     1.09700
C2105       C  0.90837773  0.48057141  0.88380826     1.09700
O2106       O  0.57736065  0.01306793  0.72343111    -0.79900
O2107       O  0.97865256  0.05918646  0.69723765    -0.79900
O2108       O  0.56321959  0.06935158  0.61346654    -0.80000
O2109       O  0.97250262  0.48223798  0.75965828    -0.79900
O2110       O  0.53947471  0.08767472  0.65647422    -0.80000
O2111       O  0.53140686  0.52000062  0.75730227    -0.79900
O2112       O  0.93382333  0.00231683  0.71033439    -0.79900
O2113       O  0.58387135  0.05434470  0.68217032    -0.80000
C2114       C  0.59759670  0.04365590  0.70822864     1.09800
C2115       C  0.94838032  0.03801922  0.71212505     1.09600
C2116       C  0.56035849  0.09557116  0.62836076     1.09800
C2117       C  0.00281402  0.50485865  0.77780610     1.09700
O2118       O  0.00525002  0.44607005  0.73639991    -0.79900
O2119       O  0.99785269  0.03522348  0.58820456    -0.80000
O2120       O  0.57738409  0.51238504  0.61736661    -0.79900
O2121       O  0.93193950  0.45439499  0.64737306    -0.79900
O2122       O  0.93744116  0.50803053  0.63375686    -0.80000
O2123       O  0.54654302  0.46989272  0.66419446    -0.79900
O2124       O  0.96380298  0.42858034  0.69222203    -0.79900
O2125       O  0.51044237  0.99175516  0.59446211    -0.80000
Co2126     Co  0.52945558  0.49309403  0.70742446     1.51500
Co2127     Co  0.98940179  0.04562409  0.64581364     1.51700
Co2128     Co  0.54326316  0.01969266  0.64147615     1.51600
Co2129     Co  0.95465934  0.47004012  0.70042162     1.51500
O2130       O  0.50226676  0.01185774  0.67490368    -1.41900
C2131       C  0.97790106  0.42015547  0.71918763     1.09700
C2132       C  0.50202081  0.01027809  0.57229092     1.09800
C2133       C  0.56770495  0.48142051  0.63399229     1.09700
C2134       C  0.91944196  0.47201867  0.63151712     1.09700
C2135       C  0.66855286  0.35167518  0.80870460     0.30200
C2136       C  0.66793336  0.35085470  0.88855889     0.30200
C2137       C  0.65883142  0.37846140  0.82854506    -0.06000
C2138       C  0.64019839  0.31326773  0.82667907    -0.06800
C2139       C  0.70349142  0.36155686  0.82932829    -0.06600
C2140       C  0.65920730  0.37869381  0.86997560    -0.06000
C2141       C  0.63947395  0.31362353  0.86770155    -0.06800
C2142       C  0.70322724  0.36167560  0.86968247    -0.06600
C2143       C  0.63816140  0.39237814  0.88174469    -0.32000
N2144       N  0.62633660  0.40148908  0.84940085     0.14500
C2145       C  0.63735914  0.39161032  0.81683970    -0.32000
H2146       H  0.62856865  0.39183299  0.78699036     0.16400
C2147       C  0.61316650  0.27811399  0.87912146    -0.31000
N2148       N  0.59871081  0.25538392  0.84645029     0.13200
C2149       C  0.61484130  0.27643419  0.81415522    -0.31000
C2150       C  0.73791382  0.37650266  0.88307884    -0.31300
N2151       N  0.75902765  0.38465988  0.85132016     0.13700
H2152       H  0.74752869  0.38330792  0.91343749     0.16300
C2153       C  0.73844379  0.37610187  0.81816769    -0.31300
H2154       H  0.74863391  0.38279328  0.78845441     0.16300
H2155       H  0.60983475  0.26514097  0.78417349     0.16300
H2156       H  0.63018835  0.39364105  0.91159533     0.16400
H2157       H  0.60682291  0.26858805  0.90917601     0.16300
C2158       C  0.67478538  0.34948946  0.55900583     0.30200
C2159       C  0.67568040  0.34737518  0.63902948     0.30200
C2160       C  0.65751704  0.36836090  0.58025401    -0.06000
C2161       C  0.65305117  0.30928809  0.57646443    -0.06800
C2162       C  0.71175128  0.36676320  0.57889454    -0.06600
C2163       C  0.65839825  0.36772533  0.62117960    -0.06000
C2164       C  0.65315874  0.30858194  0.61763812    -0.06800
C2165       C  0.71220955  0.36614953  0.61952155    -0.06600
C2166       C  0.64042480  0.38418320  0.63487097    -0.32000
N2167       N  0.62987498  0.39564594  0.60342402     0.14500
C2168       C  0.63875266  0.38486508  0.56983192    -0.32000
H2169       H  0.63210980  0.38895243  0.54034903     0.16400
C2170       C  0.63076750  0.27154931  0.62809138    -0.31000
N2171       N  0.61861503  0.24953367  0.59479686     0.13200
C2172       C  0.63122257  0.27199680  0.56304634    -0.31000
C2173       C  0.74754119  0.38346048  0.63196570    -0.31300
N2174       N  0.76835044  0.39448686  0.59956774     0.13700
H2175       H  0.75743879  0.38788812  0.66214536     0.16300
C2176       C  0.74682713  0.38415674  0.56686465    -0.31300
H2177       H  0.75607552  0.38944648  0.53673305     0.16300
H2178       H  0.62496109  0.26148405  0.53281030     0.16300
H2179       H  0.63545269  0.38798613  0.66531354     0.16400
H2180       H  0.62402064  0.26096437  0.65768528     0.16300
C2181       C  0.67341298  0.32262873  0.74694976    -0.05600
C2182       C  0.67362354  0.35339005  0.76487743     0.00400
C2183       C  0.68812399  0.38720850  0.74299444    -0.08200
C2184       C  0.68771892  0.38340562  0.70208375    -0.05600
C2185       C  0.67902606  0.34922702  0.68334526     0.00300
C2186       C  0.67986256  0.32198843  0.70683457    -0.08100
C2187       C  0.69304087  0.29643825  0.69399185     0.62300
H2188       H  0.67175225  0.30067896  0.76511823     0.13000
H2189       H  0.69621527  0.40815689  0.68454198     0.13000
C2190       C  0.70756709  0.42790421  0.75955204     0.62500
F2191       F  0.72297360  0.30569667  0.71690591    -0.22700
F2192       F  0.70321387  0.30032094  0.65511435    -0.20000
F2193       F  0.66684556  0.25892064  0.70021189    -0.19700
F2194       F  0.73790162  0.45067219  0.73774266    -0.19700
F2195       F  0.71948220  0.43181189  0.79817235    -0.20100
F2196       F  0.68542386  0.44177378  0.75634518    -0.22700
C2197       C  0.67683555  0.32395380  0.99326945    -0.05600
C2198       C  0.67725953  0.35315308  0.51496544     0.00400
C2199       C  0.68684488  0.38665514  0.99479285    -0.08200
C2200       C  0.68075081  0.38334521  0.95411002    -0.05600
C2201       C  0.67185318  0.35029701  0.93260148     0.00300
C2202       C  0.67541721  0.32239560  0.95221856    -0.08100
C2203       C  0.68006467  0.29158304  0.93383162     0.62300
H2204       H  0.67964010  0.30313869  0.00850479     0.13000
H2205       H  0.68637649  0.40837051  0.93877633     0.13000
C2206       C  0.70551000  0.42693280  0.51211404     0.62500
F2207       F  0.71094277  0.29538965  0.94969044    -0.22700
F2208       F  0.68343877  0.29238024  0.89346626    -0.20000
F2209       F  0.65115212  0.25633916  0.94349276    -0.19700
F2210       F  0.71522686  0.43020897  0.55144226    -0.19700
F2211       F  0.68419272  0.44167671  0.50714248    -0.20100
F2212       F  0.73760369  0.44922102  0.99204003    -0.22700
C2213       C  0.55263856  0.14694361  0.60886049    -0.05600
C2214       C  0.57560066  0.13317837  0.61085402     0.00400
C2215       C  0.61191621  0.15682776  0.60016727    -0.08200
C2216       C  0.62499960  0.19509694  0.59254896    -0.05600
C2217       C  0.60254345  0.20936901  0.59436165     0.00300
C2218       C  0.56558050  0.18477814  0.60049328    -0.08100
C2219       C  0.54038766  0.19898063  0.59897193     0.62300
H2220       H  0.52450345  0.12806717  0.61555841     0.13000
H2221       H  0.65322426  0.21475243  0.58696493     0.13000
C2222       C  0.63678882  0.14224193  0.59828194     0.62500
F2223       F  0.50481193  0.16973806  0.60221572    -0.22700
F2224       F  0.54391102  0.21622656  0.56335869    -0.20000
F2225       F  0.54876078  0.22499497  0.62952450    -0.19700
F2226       F  0.62346055  0.11270530  0.57070944    -0.19700
F2227       F  0.63925364  0.12952298  0.63482766    -0.20100
F2228       F  0.67105269  0.17013737  0.58732420    -0.22700
C2229       C  0.86541529  0.47177275  0.60929106    -0.05600
C2230       C  0.88165184  0.45085609  0.61525069     0.00400
C2231       C  0.86011178  0.41055093  0.60973982    -0.08200
C2232       C  0.82282976  0.39299546  0.60289727    -0.05600
C2233       C  0.80679283  0.41405973  0.60044077     0.00300
C2234       C  0.82825930  0.45392716  0.60200518    -0.08100
C2235       C  0.81140598  0.47715115  0.59706819     0.62300
H2236       H  0.88166475  0.50236521  0.61241045     0.13000
H2237       H  0.80544380  0.36239101  0.60098271     0.13000
C2238       C  0.87540543  0.38550003  0.61181900     0.62500
F2239       F  0.83734113  0.01471953  0.59182038    -0.22700
F2240       F  0.78680932  0.46882525  0.62642038    -0.20000
F2241       F  0.79400029  0.46864051  0.56063259    -0.19700
F2242       F  0.88327106  0.38245796  0.65066922    -0.19700
F2243       F  0.90619077  0.40052486  0.58980670    -0.20100
F2244       F  0.85122205  0.34925574  0.59681400    -0.22700
C2245       C  0.61977722  0.47772134  0.62065662    -0.05600
C2246       C  0.58236623  0.45933919  0.61984857     0.00400
C2247       C  0.56058643  0.42081403  0.60765854    -0.08200
C2248       C  0.57730446  0.40058164  0.60090252    -0.05600
C2249       C  0.61456971  0.41823139  0.60582960     0.00300
C2250       C  0.63641117  0.45754181  0.61472263    -0.08100
C2251       C  0.67696665  0.47788781  0.61885988     0.62300
H2252       H  0.63577632  0.50767207  0.62861464     0.13000
H2253       H  0.56149984  0.37067000  0.59290426     0.13000
C2254       C  0.52043490  0.40192202  0.60036729     0.62500
F2255       F  0.69252454  0.01699995  0.62627140    -0.22700
F2256       F  0.69071427  0.47284636  0.58452827    -0.20000
F2257       F  0.68616325  0.46374588  0.65016329    -0.19700
F2258       F  0.51422901  0.42278707  0.57396692    -0.19700
F2259       F  0.50359126  0.39974145  0.63525232    -0.20100
F2260       F  0.50508088  0.36555032  0.58463803    -0.22700
C2261       C  0.60095315  0.19909430  0.85323330    -0.05600
C2262       C  0.58024034  0.21487384  0.84795864     0.00400
C2263       C  0.54244340  0.19161339  0.84896440    -0.08200
C2264       C  0.52624385  0.15276382  0.85698545    -0.05600
C2265       C  0.54720182  0.13736408  0.86491318     0.00300
C2266       C  0.58527357  0.16068921  0.86165925    -0.08100
C2267       C  0.60974938  0.14566468  0.86709405     0.60700
H2268       H  0.62988112  0.21785665  0.85245757     0.13000
H2269       H  0.49733204  0.13468580  0.85905359     0.13000
C2270       C  0.51991459  0.20851562  0.84255599     0.62500
F2271       F  0.64415268  0.17100689  0.85426624    -0.22700
F2272       F  0.59639115  0.11221816  0.84545674    -0.20000
F2273       F  0.61236160  0.13947288  0.90660828    -0.19700
F2274       F  0.52817214  0.22643760  0.80673426    -0.19700
F2275       F  0.52712599  0.23474979  0.87251416    -0.20100
F2276       F  0.48354511  0.18106914  0.84214781    -0.22700
C2277       C  0.81371346  0.44686449  0.84871992    -0.05600
C2278       C  0.79728115  0.40783329  0.85330432     0.00400
C2279       C  0.81790821  0.39246909  0.86316560    -0.08200
C2280       C  0.85473721  0.41732193  0.87094105    -0.05600
C2281       C  0.87102666  0.45673168  0.86908073     0.00300
C2282       C  0.85065968  0.47199027  0.85616339    -0.08100
C2283       C  0.86636081  0.01332204  0.85012335     0.62300
H2284       H  0.79686237  0.45737593  0.84052729     0.13000
H2285       H  0.87101654  0.40617435  0.87932730     0.13000
C2286       C  0.80072207  0.35001923  0.86544336     0.62500
F2287       F  0.84062692  0.02146273  0.84064823    -0.22700
F2288       F  0.89052542  0.02557822  0.81971655    -0.20000
F2289       F  0.88389319  0.03348046  0.88444398    -0.19700
F2290       F  0.78435686  0.33299109  0.82946253    -0.19700
F2291       F  0.77521721  0.33577688  0.89448301    -0.20100
F2292       F  0.82575232  0.34067838  0.87420872    -0.22700
C2293       C  0.55260844  0.42024050  0.86096623    -0.05600
C2294       C  0.57249648  0.46026622  0.86508276     0.00400
C2295       C  0.61013579  0.48054992  0.85733156    -0.08200
C2296       C  0.62655773  0.45988329  0.85059595    -0.05600
C2297       C  0.60698977  0.42031006  0.85017627     0.00300
C2298       C  0.56937506  0.40001081  0.85329763    -0.08100
C2299       C  0.54764606  0.35712498  0.84913617     0.62300
H2300       H  0.52388160  0.40461003  0.86532079     0.13000
H2301       H  0.65535354  0.47442926  0.84709719     0.13000
C2302       C  0.63334661  0.02371757  0.85679176     0.62500
F2303       F  0.51108717  0.34226630  0.85048691    -0.22700
F2304       F  0.55694994  0.34192859  0.87934236    -0.20000
F2305       F  0.55468447  0.34622251  0.81329145    -0.19700
F2306       F  0.63708974  0.03885490  0.89446885    -0.19700
F2307       F  0.61834994  0.03760084  0.83167953    -0.20100
F2308       F  0.66743432  0.03613189  0.84341452    -0.22700
C2309       C  0.92278769  0.10786515  0.74770495    -0.05600
C2310       C  0.88545419  0.08581938  0.74194370     0.00400
C2311       C  0.86854019  0.04721950  0.73062908    -0.08200
C2312       C  0.88991419  0.03198508  0.72400701    -0.05600
C2313       C  0.92776266  0.05464118  0.72697768     0.00300
C2314       C  0.94449661  0.09320949  0.73998513    -0.08100
C2315       C  0.98504891  0.11955780  0.74430694     0.62300
H2316       H  0.93491528  0.13747899  0.75607700     0.13000
H2317       H  0.87714918  0.00268445  0.71405174     0.13000
C2318       C  0.82809586  0.02284023  0.72456358     0.62500
F2319       F  0.99463192  0.15279571  0.76456600    -0.22700
F2320       F  0.00007324  0.12912566  0.70733872    -0.20000
F2321       F  0.49956559  0.10390822  0.76495739    -0.19700
F2322       F  0.81775528  0.03619250  0.69347321    -0.19700
F2323       F  0.81152723  0.02416353  0.75849333    -0.20100
F2324       F  0.81633247  0.98534814  0.71608417    -0.22700
C2325       C  0.91482586  0.32331472  0.75755470    -0.05600
C2326       C  0.93067710  0.30406809  0.74329906     0.00400
C2327       C  0.96485057  0.32424132  0.72593057    -0.08200
C2328       C  0.98060819  0.36307586  0.71992789    -0.05600
C2329       C  0.96268195  0.38115861  0.73041244     0.00300
C2330       C  0.93073509  0.36208785  0.75189151    -0.08100
C2331       C  0.91440401  0.38303078  0.76957713     0.62300
H2332       H  0.88918684  0.30728423  0.77192452     0.13000
H2333       H  0.00646984  0.37933366  0.70608602     0.13000
C2334       C  0.98451129  0.30494007  0.71438254     0.62500
F2335       F  0.88363748  0.35918014  0.79020895    -0.22700
F2336       F  0.90550589  0.39923680  0.74009387    -0.20000
F2337       F  0.93904914  0.41118877  0.79557458    -0.19700
F2338       F  0.96604479  0.27863471  0.68410948    -0.19700
F2339       F  0.98737879  0.28683697  0.74666121    -0.20100
F2340       F  0.01885108  0.33066702  0.70160054    -0.22700
C2341       C  0.65343967  0.10553616  0.72036894    -0.05600
C2342       C  0.63562309  0.06612771  0.72192627     0.00400
C2343       C  0.65453113  0.04928502  0.73644936    -0.08200
C2344       C  0.69127178  0.07323822  0.74617862    -0.05600
C2345       C  0.70920135  0.11234205  0.74200496     0.00300
C2346       C  0.69007869  0.12900418  0.73018740    -0.08100
C2347       C  0.70857579  0.17152224  0.72775882     0.62300
H2348       H  0.63846042  0.11784411  0.71087905     0.13000
H2349       H  0.70700788  0.06173367  0.75548242     0.13000
C2350       C  0.63742648  0.00658699  0.74040209     0.62500
F2351       F  0.68441447  0.18213166  0.71932626    -0.22700
F2352       F  0.73362454  0.18460338  0.69831359    -0.20000
F2353       F  0.72560098  0.18841241  0.76352156    -0.19700
F2354       F  0.62230582  0.98803582  0.70479266    -0.19700
F2355       F  0.61189251  0.49337062  0.76817271    -0.20100
F2356       F  0.66231143  0.99769300  0.75172689    -0.22700
C2357       C  0.88755771  0.04240864  0.97169698    -0.05600
C2358       C  0.92528867  0.06368068  0.96868825     0.00400
C2359       C  0.94520547  0.10219671  0.98057883    -0.08200
C2360       C  0.92645456  0.11961097  0.99083426    -0.05600
C2361       C  0.88879267  0.09901950  0.99024823     0.00300
C2362       C  0.86883111  0.05969985  0.98196702    -0.08100
C2363       C  0.82800534  0.03675321  0.98295452     0.62300
H2364       H  0.87272724  0.01235305  0.96426753     0.13000
H2365       H  0.94087222  0.14966756  0.99796597     0.13000
C2366       C  0.98579371  0.12403721  0.98347523     0.62500
F2367       F  0.81377428  0.99830836  0.97756234    -0.22700
F2368       F  0.81416250  0.04805242  0.95340851    -0.20000
F2369       F  0.81479143  0.04237936  0.51372156    -0.19700
F2370       F  0.49984163  0.12766028  0.94694946    -0.19700
F2371       F  0.49535732  0.10443441  0.50931049    -0.20100
F2372       F  0.49935783  0.15967543  0.50136735    -0.22700
C2373       C  0.94876087  0.37030602  0.48470945    -0.05600
C2374       C  0.92625466  0.38347265  0.98187658     0.00400
C2375       C  0.88997580  0.36109273  0.99325887    -0.08200
C2376       C  0.87677759  0.32352509  0.00343125    -0.05600
C2377       C  0.89907515  0.30909331  0.00283954     0.00300
C2378       C  0.93572108  0.33321123  0.49530515    -0.08100
C2379       C  0.96035172  0.31833854  0.49630563     0.62300
H2380       H  0.97676129  0.38868372  0.47717143     0.13000
H2381       H  0.84856146  0.30433763  0.00942115     0.13000
C2382       C  0.86503962  0.37585862  0.99218838     0.62500
F2383       F  0.99597881  0.34706090  0.49200627    -0.22700
F2384       F  0.95088104  0.29183910  0.46599278    -0.20000
F2385       F  0.95734573  0.30152917  0.53207282    -0.19700
F2386       F  0.86378388  0.38747870  0.95458355    -0.19700
F2387       F  0.87723265  0.40620383  0.01849713    -0.20100
F2388       F  0.83037227  0.34838989  0.00235244    -0.22700
C2389       C  0.64339672  0.10233765  0.98244208    -0.05600
C2390       C  0.62341368  0.06242699  0.98159064     0.00400
C2391       C  0.64134466  0.04332897  0.99081560    -0.08200
C2392       C  0.67910503  0.06496289  0.99438196    -0.05600
C2393       C  0.69877592  0.10422654  0.99003691     0.00300
C2394       C  0.68117826  0.12385990  0.48583135    -0.08100
C2395       C  0.70179395  0.16671051  0.48447908     0.62300
H2396       H  0.63002038  0.11743888  0.47720392     0.13000
H2397       H  0.69390614  0.05137990  0.99926666     0.13000
C2398       C  0.62169851  0.00076718  0.99635625     0.62500
F2399       F  0.67910574  0.18015140  0.48496269    -0.22700
F2400       F  0.72122501  0.17842349  0.45028636    -0.20000
F2401       F  0.72504205  0.18253694  0.51679554    -0.19700
F2402       F  0.60823058  0.98165854  0.96044264    -0.19700
F2403       F  0.59436279  0.48879084  0.02142776    -0.20100
F2404       F  0.64465717  0.48972505  0.01032878    -0.22700
C2405       C  0.86716949  0.18162094  0.89497542    -0.05600
C2406       C  0.83675574  0.17918818  0.91130893     0.00400
C2407       C  0.81765539  0.19000506  0.88688046    -0.08200
C2408       C  0.82077832  0.18754931  0.84626164    -0.05600
C2409       C  0.84330968  0.17677944  0.82953984     0.00300
C2410       C  0.87140201  0.18071583  0.85426679    -0.08100
C2411       C  0.90720697  0.18684043  0.84156447     0.62300
H2412       H  0.88868963  0.18553430  0.91420280     0.13000
H2413       H  0.80650288  0.19610753  0.82753265     0.13000
C2414       C  0.79637495  0.20728401  0.89998475     0.62500
F2415       F  0.93483487  0.22045046  0.85869925    -0.22700
F2416       F  0.91243256  0.18935691  0.80145816    -0.20000
F2417       F  0.91014582  0.15756162  0.85506913    -0.19700
F2418       F  0.79722684  0.21365719  0.94013261    -0.19700
F2419       F  0.76101841  0.18394765  0.88715770    -0.20100
F2420       F  0.81048104  0.24204617  0.88251514    -0.22700
C2421       C  0.82545466  0.19410954  0.60076736    -0.05600
C2422       C  0.82477578  0.16503264  0.57905726     0.00400
C2423       C  0.81571532  0.13165261  0.59922673    -0.08200
C2424       C  0.82188545  0.13501532  0.63987936    -0.05600
C2425       C  0.83225873  0.16861058  0.66113689     0.00300
C2426       C  0.82842501  0.19648920  0.64175580    -0.08100
C2427       C  0.82505643  0.22810845  0.66033565     0.62300
H2428       H  0.82196474  0.21450996  0.58558376     0.13000
H2429       H  0.81523933  0.10974162  0.65533708     0.13000
C2430       C  0.79631319  0.09137749  0.58184494     0.62500
F2431       F  0.85343802  0.26285559  0.64859215    -0.22700
F2432       F  0.82406158  0.22884677  0.70091271    -0.20000
F2433       F  0.79348440  0.22405112  0.64651356    -0.19700
F2434       F  0.81704408  0.07611015  0.58800176    -0.19700
F2435       F  0.78773763  0.08836756  0.54217435    -0.20100
F2436       F  0.76437434  0.06955638  0.60133726    -0.22700
C2437       C  0.83172189  0.67368093  0.45441630     0.30200
C2438       C  0.82899236  0.66864132  0.03458111     0.30200
C2439       C  0.84660622  0.65131810  0.47314719    -0.06000
C2440       C  0.85200518  0.71118605  0.47749717    -0.06800
C2441       C  0.79379640  0.65348484  0.47152545    -0.06600
C2442       C  0.84700654  0.65019367  0.01426277    -0.06000
C2443       C  0.85110195  0.70907683  0.01852937    -0.06800
C2444       C  0.79301350  0.65170248  0.01254263    -0.06600
C2445       C  0.86403272  0.63203350  0.02542018    -0.32000
N2446       N  0.87149560  0.62002821  0.49198805     0.14500
C2447       C  0.86085115  0.63084158  0.46017068    -0.32000
H2448       H  0.86351567  0.62404334  0.42993330     0.16400
C2449       C  0.87072482  0.74617032  0.03285830    -0.31000
N2450       N  0.88223649  0.76911711  0.00152841     0.13200
C2451       C  0.87112750  0.74835441  0.46758433    -0.31000
C2452       C  0.75781160  0.63381487  0.02337641    -0.31300
N2453       N  0.73711612  0.62474264  0.49008206     0.13700
H2454       H  0.74775631  0.62815051  0.05303920     0.16300
C2455       C  0.75855321  0.63516301  0.45818218    -0.31300
H2456       H  0.74901102  0.62954385  0.42765538     0.16300
H2457       H  0.87576121  0.75949841  0.43805818     0.16300
H2458       H  0.87054104  0.62821479  0.05515753     0.16400
H2459       H  0.87612856  0.75622875  0.06324849     0.16300
C2460       C  0.83753061  0.66798797  0.20436653     0.30200
C2461       C  0.84076274  0.67057217  0.28454571     0.30200
C2462       C  0.84562508  0.63981302  0.22353733    -0.06000
C2463       C  0.86723565  0.70525667  0.22318118    -0.06800
C2464       C  0.80341630  0.65897695  0.22473339    -0.06600
C2465       C  0.84649694  0.64043754  0.26496600    -0.06000
C2466       C  0.86798819  0.70702668  0.26387571    -0.06800
C2467       C  0.80428839  0.65955411  0.26536336    -0.06600
C2468       C  0.85840306  0.61726414  0.27634078    -0.32000
N2469       N  0.86636716  0.60438766  0.24338402     0.14500
C2470       C  0.85970858  0.61882111  0.21130938    -0.32000
H2471       H  0.86716760  0.61638141  0.18155064     0.16400
C2472       C  0.89416709  0.74345370  0.27539399    -0.31000
N2473       N  0.90981054  0.76330373  0.24248641     0.13200
C2474       C  0.89361178  0.74014421  0.21042711    -0.31000
C2475       C  0.76873926  0.64202974  0.27671674    -0.31300
N2476       N  0.74774292  0.63428852  0.24395487     0.13700
H2477       H  0.75857345  0.63371304  0.30622235     0.16300
C2478       C  0.76854000  0.64337512  0.21197341    -0.31300
H2479       H  0.75859370  0.63665380  0.18175024     0.16300
H2480       H  0.89853980  0.74900822  0.17996587     0.16300
H2481       H  0.86349082  0.61236276  0.30617222     0.16400
H2482       H  0.90019642  0.75521264  0.30520032     0.16300
O2483       O  0.56637691  0.50780620  0.46182374    -0.79900
O2484       O  0.96649611  0.55439869  0.43015253    -0.79900
O2485       O  0.54374310  0.59071603  0.40563853    -0.80000
O2486       O  0.98419946  0.01875837  0.00670035    -0.79900
O2487       O  0.50073492  0.56992945  0.36211910    -0.80000
O2488       O  0.50648030  0.98239694  0.00862968    -0.79900
O2489       O  0.93211624  0.51327237  0.47214930    -0.79900
O2490       O  0.57564077  0.56354768  0.44958873    -0.80000
C2491       C  0.58600571  0.54357270  0.46490253     1.09800
C2492       C  0.94264387  0.54372247  0.45646183     1.09600
C2493       C  0.52916659  0.59752052  0.37797293     1.09800
C2494       C  0.99778820  0.00384352  0.02656155     1.09700
O2495       O  0.96300240  0.93130708  0.43891006    -0.79900
O2496       O  0.97784540  0.49308497  0.34384642    -0.80000
O2497       O  0.57000387  0.01520768  0.38556466    -0.79900
O2498       O  0.91515946  0.96401381  0.42148106    -0.79900
O2499       O  0.92796630  0.00159160  0.37153782    -0.80000
O2500       O  0.52296790  0.95944100  0.39646382    -0.79900
O2501       O  0.93886962  0.94591969  0.48460334    -0.79900
O2502       O  0.53426382  0.53870948  0.33836479    -0.80000
Co2503     Co  0.51369943  0.97311540  0.44934874     1.51500
Co2504     Co  0.97239905  0.52029304  0.39007988     1.51700
Co2505     Co  0.55289898  0.55019800  0.39670798     1.51600
Co2506     Co  0.96018637  0.99344960  0.45700659     1.51500
O2507       O  0.50599802  0.51363611  0.42407190    -1.41900
C2508       C  0.94205506  0.92141460  0.46738771     1.09700
C2509       C  0.50483563  0.51197536  0.32195844     1.09800
C2510       C  0.55373092  0.97949667  0.38199919     1.09700
C2511       C  0.90569486  0.97380068  0.39028901     1.09700
O2512       O  0.57768720  0.51344991  0.22333558    -0.79900
O2513       O  0.97975110  0.55977890  0.19806217    -0.79900
O2514       O  0.56312438  0.56913084  0.11302637    -0.80000
O2515       O  0.97232552  0.98248850  0.25678384    -0.79900
O2516       O  0.53915635  0.58691829  0.15627053    -0.80000
O2517       O  0.53103022  0.01995674  0.25792127    -0.79900
O2518       O  0.93476283  0.50288458  0.21089382    -0.79900
O2519       O  0.58401188  0.55434421  0.18163169    -0.80000
C2520       C  0.59781768  0.54390553  0.20785229     1.09800
C2521       C  0.94942573  0.53859617  0.21286179     1.09600
C2522       C  0.56005803  0.59513176  0.12814884     1.09800
C2523       C  0.00261758  0.00589507  0.27447466     1.09700
O2524       O  0.00451338  0.94573263  0.23500909    -0.79900
O2525       O  0.99846654  0.53594548  0.08857644    -0.80000
O2526       O  0.57716209  0.01185135  0.11807383    -0.79900
O2527       O  0.93159713  0.95396692  0.14517095    -0.79900
O2528       O  0.93706866  0.00776345  0.13234358    -0.80000
O2529       O  0.54613169  0.96961830  0.16505357    -0.79900
O2530       O  0.96372563  0.92831826  0.19005765    -0.79900
O2531       O  0.51076019  0.49142996  0.09391438    -0.80000
Co2532     Co  0.52921835  0.99313894  0.20805454     1.51500
Co2533     Co  0.99030639  0.54632626  0.14642166     1.51700
Co2534     Co  0.54347662  0.51947227  0.14097501     1.51600
Co2535     Co  0.95416326  0.96952803  0.19818944     1.51500
O2536       O  0.50230655  0.51116883  0.17446046    -1.41900
C2537       C  0.97751288  0.91981200  0.21731679     1.09700
C2538       C  0.50216003  0.50984383  0.07180670     1.09800
C2539       C  0.56729727  0.98091364  0.13487140     1.09700
C2540       C  0.91917474  0.97176421  0.12955934     1.09700
C2541       C  0.66780272  0.85168508  0.30948365     0.30200
C2542       C  0.66632437  0.85029869  0.38937951     0.30200
C2543       C  0.65776677  0.87822569  0.32925609    -0.06000
C2544       C  0.63939663  0.81311532  0.32708235    -0.06800
C2545       C  0.70251025  0.86160001  0.33055615    -0.06600
C2546       C  0.65770906  0.87817379  0.37069161    -0.06000
C2547       C  0.63819983  0.81316557  0.36809449    -0.06800
C2548       C  0.70182471  0.86142606  0.37090976    -0.06600
C2549       C  0.63684753  0.89211046  0.38226475    -0.32000
N2550       N  0.62546929  0.90153927  0.34978414     0.14500
C2551       C  0.63662835  0.89168467  0.31732757    -0.32000
H2552       H  0.62816563  0.89217422  0.28739963     0.16400
C2553       C  0.61190894  0.77749266  0.37909821    -0.31000
N2554       N  0.59800380  0.75498519  0.34620843     0.13200
C2555       C  0.61440292  0.77631710  0.31417388    -0.31000
C2556       C  0.73630607  0.87594246  0.38470078    -0.31300
N2557       N  0.75762090  0.88411556  0.35315773     0.13700
H2558       H  0.74563695  0.88226336  0.41517058     0.16300
C2559       C  0.73748445  0.87598753  0.31976516    -0.31300
H2560       H  0.74797338  0.88257730  0.29016392     0.16300
H2561       H  0.60981227  0.76524782  0.28411941     0.16300
H2562       H  0.62870487  0.89335989  0.41203386     0.16400
H2563       H  0.60518083  0.76773403  0.40902214     0.16300
C2564       C  0.67417267  0.84905238  0.06001153     0.30200
C2565       C  0.67603217  0.84750900  0.14006502     0.30200
C2566       C  0.65718985  0.86805963  0.08149006    -0.06000
C2567       C  0.65261047  0.80900902  0.07779393    -0.06800
C2568       C  0.71133658  0.86643077  0.07938084    -0.06600
C2569       C  0.65854724  0.86772115  0.12241463    -0.06000
C2570       C  0.65325021  0.80854185  0.11898370    -0.06800
C2571       C  0.71231307  0.86614751  0.12002008    -0.06600
C2572       C  0.64068461  0.88421892  0.13631263    -0.32000
N2573       N  0.62979661  0.89543211  0.10495829     0.14500
C2574       C  0.63830986  0.88444904  0.07126327    -0.32000
H2575       H  0.63134224  0.88832282  0.04184555     0.16400
C2576       C  0.63072705  0.77157988  0.12968808    -0.31000
N2577       N  0.61787914  0.74942974  0.09650167     0.13200
C2578       C  0.63025789  0.77173668  0.06462833    -0.31000
C2579       C  0.74780814  0.88371632  0.13190126    -0.31300
N2580       N  0.76816673  0.89453472  0.09914831     0.13700
H2581       H  0.75811901  0.88845119  0.16192998     0.16300
C2582       C  0.74622812  0.88384359  0.06678323    -0.31300
H2583       H  0.75507659  0.88892544  0.03650000     0.16300
H2584       H  0.62349939  0.76111916  0.03445623     0.16300
H2585       H  0.63598061  0.88819065  0.16680667     0.16400
H2586       H  0.62432968  0.76113169  0.15936879     0.16300
C2587       C  0.67367216  0.82304367  0.24797904    -0.05600
C2588       C  0.67345153  0.85363845  0.26572895     0.00400
C2589       C  0.68821520  0.88755141  0.24393573    -0.08200
C2590       C  0.68842243  0.88391042  0.20303670    -0.05600
C2591       C  0.67978865  0.84972312  0.18436544     0.00300
C2592       C  0.68043851  0.82247111  0.20795432    -0.08100
C2593       C  0.69374708  0.79701570  0.19526869     0.62300
H2594       H  0.67196933  0.80111992  0.26622614     0.13000
H2595       H  0.69702965  0.90866693  0.18545989     0.13000
C2596       C  0.70722475  0.92816101  0.26065890     0.62500
F2597       F  0.72370643  0.80645291  0.21823231    -0.22700
F2598       F  0.70390381  0.80085505  0.15638326    -0.20000
F2599       F  0.66764260  0.75948517  0.20155509    -0.19700
F2600       F  0.73775900  0.95122599  0.23925709    -0.19700
F2601       F  0.71872089  0.93195577  0.29944252    -0.20100
F2602       F  0.68489963  0.94177140  0.25707654    -0.22700
C2603       C  0.67462037  0.82292702  0.49416682    -0.05600
C2604       C  0.67621615  0.85251208  0.01592694     0.00400
C2605       C  0.68543540  0.88597462  0.49569428    -0.08200
C2606       C  0.67899490  0.88258797  0.45505195    -0.05600
C2607       C  0.66990095  0.84949181  0.43348982     0.00300
C2608       C  0.67327475  0.82145134  0.45310597    -0.08100
C2609       C  0.67797740  0.79067253  0.43472133     0.62300
H2610       H  0.67712370  0.80189765  0.50936258     0.13000
H2611       H  0.68468490  0.90764339  0.43973372     0.13000
C2612       C  0.70463869  0.92637960  0.01300863     0.62500
F2613       F  0.70850974  0.79407228  0.45111233    -0.22700
F2614       F  0.68203411  0.79194453  0.39444621    -0.20000
F2615       F  0.64878723  0.75539222  0.44376903    -0.19700
F2616       F  0.71438345  0.92977574  0.05233574    -0.19700
F2617       F  0.68325648  0.94103733  0.00795660    -0.20100
F2618       F  0.73654245  0.94827261  0.49228193    -0.22700
C2619       C  0.55208830  0.64652564  0.10954053    -0.05600
C2620       C  0.57516355  0.63287999  0.11107996     0.00400
C2621       C  0.61149738  0.65681647  0.10064541    -0.08200
C2622       C  0.62447544  0.69517298  0.09374608    -0.05600
C2623       C  0.60190770  0.70928162  0.09600142     0.00300
C2624       C  0.56491852  0.68446885  0.10186736    -0.08100
C2625       C  0.53954668  0.69845893  0.10075420     0.62300
H2626       H  0.52394283  0.62743422  0.11605528     0.13000
H2627       H  0.65269178  0.71499336  0.08827444     0.13000
C2628       C  0.63647668  0.64240130  0.09820138     0.62500
F2629       F  0.50401854  0.66902031  0.10380437    -0.22700
F2630       F  0.54298628  0.71604461  0.06539343    -0.20000
F2631       F  0.54775838  0.72410226  0.13165026    -0.19700
F2632       F  0.62328562  0.61330942  0.07010741    -0.19700
F2633       F  0.63890130  0.62912480  0.13441368    -0.20100
F2634       F  0.67073776  0.67057287  0.08754934    -0.22700
C2635       C  0.86525217  0.97174768  0.10765633    -0.05600
C2636       C  0.88147428  0.95077147  0.11320354     0.00400
C2637       C  0.85994183  0.91051116  0.10745436    -0.08200
C2638       C  0.82261756  0.89298385  0.10112827    -0.05600
C2639       C  0.80657971  0.91408226  0.09934481     0.00300
C2640       C  0.82806029  0.95394636  0.10083401    -0.08100
C2641       C  0.81121380  0.97721922  0.09635852     0.62300
H2642       H  0.88153151  0.00233336  0.11085919     0.13000
H2643       H  0.80522815  0.86237995  0.09917481     0.13000
C2644       C  0.87526222  0.88546003  0.10888919     0.62500
F2645       F  0.83724240  0.51641631  0.09928400    -0.22700
F2646       F  0.78714778  0.96917982  0.12623316    -0.20000
F2647       F  0.79318488  0.96847388  0.06029682    -0.19700
F2648       F  0.88274598  0.88159465  0.14762206    -0.19700
F2649       F  0.90628704  0.90097600  0.08722968    -0.20100
F2650       F  0.85122515  0.84954106  0.09301955    -0.22700
C2651       C  0.61932134  0.97728415  0.12137282    -0.05600
C2652       C  0.58189167  0.95869697  0.12105893     0.00400
C2653       C  0.56012445  0.91991888  0.10977451    -0.08200
C2654       C  0.57697538  0.89981710  0.10321437    -0.05600
C2655       C  0.61431295  0.91779981  0.10746400     0.00300
C2656       C  0.63608123  0.95722760  0.11565099    -0.08100
C2657       C  0.67670070  0.97786172  0.11912963     0.62300
H2658       H  0.63527657  0.00736459  0.12873267     0.13000
H2659       H  0.56125074  0.86977430  0.09581855     0.13000
C2660       C  0.51983939  0.90056331  0.10315929     0.62500
F2661       F  0.69305567  0.51672815  0.12524314    -0.22700
F2662       F  0.69007581  0.97296316  0.08442806    -0.20000
F2663       F  0.68650702  0.96389547  0.15006138    -0.19700
F2664       F  0.51297798  0.92064938  0.07637089    -0.19700
F2665       F  0.50347403  0.89897551  0.13822275    -0.20100
F2666       F  0.50451279  0.86389467  0.08827911    -0.22700
C2667       C  0.60041416  0.69873940  0.35244274    -0.05600
C2668       C  0.57964170  0.71447871  0.34739648     0.00400
C2669       C  0.54185880  0.69116473  0.34837984    -0.08200
C2670       C  0.52570978  0.65230241  0.35626895    -0.05600
C2671       C  0.54672456  0.63695508  0.36409700     0.00300
C2672       C  0.58478414  0.66031623  0.36074850    -0.08100
C2673       C  0.60930998  0.64535101  0.36614081     0.60700
H2674       H  0.62934059  0.71754207  0.35168158     0.13000
H2675       H  0.49680428  0.63419475  0.35839410     0.13000
C2676       C  0.51930313  0.70805468  0.34213795     0.62500
F2677       F  0.64359608  0.67058528  0.35293796    -0.22700
F2678       F  0.59582399  0.61172624  0.34480701    -0.20000
F2679       F  0.61221399  0.63951024  0.40569694    -0.19700
F2680       F  0.52773835  0.72636328  0.30653468    -0.19700
F2681       F  0.52628890  0.73395345  0.37238996    -0.20100
F2682       F  0.48295762  0.68053864  0.34138059    -0.22700
C2683       C  0.81350004  0.94513885  0.35068203    -0.05600
C2684       C  0.79579548  0.90605985  0.35562356     0.00400
C2685       C  0.81510989  0.88941489  0.36623380    -0.08200
C2686       C  0.85160217  0.91293430  0.37540569    -0.05600
C2687       C  0.86879917  0.95219625  0.37463614     0.00300
C2688       C  0.85040795  0.96909626  0.35913556    -0.08100
C2689       C  0.86729444  0.51492703  0.35079278     0.62300
H2690       H  0.79769120  0.95652495  0.34116627     0.13000
H2691       H  0.86699339  0.90083833  0.38406982     0.13000
C2692       C  0.79698449  0.84700137  0.36852725     0.62500
F2693       F  0.84175425  0.52340181  0.34151944    -0.22700
F2694       F  0.89155445  0.52735773  0.32047580    -0.20000
F2695       F  0.88480881  0.53470733  0.38526399    -0.19700
F2696       F  0.78026687  0.83019176  0.33264191    -0.19700
F2697       F  0.77179622  0.83372162  0.39783529    -0.20100
F2698       F  0.82137447  0.83671695  0.37711936    -0.22700
C2699       C  0.55214775  0.92087440  0.36060964    -0.05600
C2700       C  0.57225277  0.96084098  0.36539895     0.00400
C2701       C  0.60995148  0.98101552  0.35805634    -0.08200
C2702       C  0.62623761  0.96021048  0.35144685    -0.05600
C2703       C  0.60640068  0.92063156  0.35036469     0.00300
C2704       C  0.56873915  0.90053247  0.35267268    -0.08100
C2705       C  0.54675967  0.85776682  0.34704487     0.62300
H2706       H  0.52335428  0.90537774  0.36444855     0.13000
H2707       H  0.65507804  0.97462245  0.34844244     0.13000
C2708       C  0.63336296  0.52345096  0.35698797     0.62500
F2709       F  0.51024458  0.84310871  0.34855922    -0.22700
F2710       F  0.55578402  0.84139067  0.37623461    -0.20000
F2711       F  0.55380098  0.84797560  0.31055563    -0.19700
F2712       F  0.63684267  0.53823086  0.39479610    -0.19700
F2713       F  0.61871074  0.53771650  0.33190432    -0.20100
F2714       F  0.66755007  0.53585376  0.34396387    -0.22700
C2715       C  0.92351697  0.60819680  0.24834095    -0.05600
C2716       C  0.88621278  0.58610774  0.24218569     0.00400
C2717       C  0.86943671  0.54755565  0.23076147    -0.08200
C2718       C  0.89090834  0.53243643  0.22431015    -0.05600
C2719       C  0.92873303  0.55514003  0.22761467     0.00300
C2720       C  0.94533723  0.59362496  0.24083211    -0.08100
C2721       C  0.98585531  0.61988893  0.24575220     0.62300
H2722       H  0.93554455  0.63776034  0.25687440     0.13000
H2723       H  0.87824151  0.50318510  0.21421347     0.13000
C2724       C  0.82902688  0.52308931  0.22441295     0.62500
F2725       F  0.99526207  0.65310320  0.26594400    -0.22700
F2726       F  0.00139990  0.62953780  0.20904540    -0.20000
F2727       F  0.49976058  0.60262161  0.26466343    -0.19700
F2728       F  0.81882246  0.53638288  0.19314670    -0.19700
F2729       F  0.81222436  0.52435727  0.25816262    -0.20100
F2730       F  0.81738924  0.48561724  0.21602399    -0.22700
C2731       C  0.91470363  0.82299232  0.25584851    -0.05600
C2732       C  0.93029058  0.80365401  0.24107802     0.00400
C2733       C  0.96413333  0.82368984  0.22298769    -0.08200
C2734       C  0.97991957  0.86253649  0.21706079    -0.05600
C2735       C  0.96232524  0.88077667  0.22835488     0.00300
C2736       C  0.93061771  0.86176997  0.25024314    -0.08100
C2737       C  0.91452806  0.88277916  0.26838422     0.62300
H2738       H  0.88928881  0.80704392  0.27067304     0.13000
H2739       H  0.00539750  0.87859634  0.20239593     0.13000
C2740       C  0.98313406  0.80410877  0.20985375     0.62500
F2741       F  0.88356356  0.85882649  0.28867718    -0.22700
F2742       F  0.90600768  0.89963546  0.23926636    -0.20000
F2743       F  0.93921855  0.91045157  0.29475839    -0.19700
F2744       F  0.96557739  0.78096897  0.17709278    -0.19700
F2745       F  0.98349938  0.78246162  0.24005857    -0.20100
F2746       F  0.01839104  0.82999847  0.19994776    -0.22700
C2747       C  0.65365658  0.60585623  0.21978754    -0.05600
C2748       C  0.63586143  0.56645122  0.22137147     0.00400
C2749       C  0.65477369  0.54961105  0.23585210    -0.08200
C2750       C  0.69147933  0.57355478  0.24563143    -0.05600
C2751       C  0.70937409  0.61266171  0.24159533     0.00300
C2752       C  0.69027191  0.62933798  0.22973563    -0.08100
C2753       C  0.70870693  0.67188231  0.22770620     0.62300
H2754       H  0.63863835  0.61814088  0.21037188     0.13000
H2755       H  0.70722121  0.56204906  0.25490922     0.13000
C2756       C  0.63768056  0.50691376  0.23976175     0.62500
F2757       F  0.68472880  0.68243195  0.21801268    -0.22700
F2758       F  0.73479262  0.68551027  0.19938063    -0.20000
F2759       F  0.72445935  0.68833302  0.26406213    -0.19700
F2760       F  0.62227878  0.48834039  0.20422952    -0.19700
F2761       F  0.61159200  0.99294271  0.26889029    -0.20100
F2762       F  0.66262813  0.49799727  0.25071693    -0.22700
C2763       C  0.88799772  0.54316468  0.47149863    -0.05600
C2764       C  0.92573592  0.56445333  0.46854007     0.00400
C2765       C  0.94559607  0.60305320  0.48007688    -0.08200
C2766       C  0.92679603  0.62046977  0.49009216    -0.05600
C2767       C  0.88913244  0.59983170  0.48947192     0.00300
C2768       C  0.86921107  0.56049220  0.48132958    -0.08100
C2769       C  0.82836833  0.53757016  0.48193061     0.62300
H2770       H  0.87320883  0.51306820  0.46428329     0.13000
H2771       H  0.94117549  0.65055714  0.49705025     0.13000
C2772       C  0.98618633  0.62499828  0.48279249     0.62500
F2773       F  0.81415069  0.49911491  0.47670527    -0.22700
F2774       F  0.81478305  0.54882142  0.45204943    -0.20000
F2775       F  0.81714273  0.54207075  0.01877490    -0.19700
F2776       F  0.49975457  0.62740963  0.44630060    -0.19700
F2777       F  0.49705507  0.60529393  0.00685212    -0.20100
F2778       F  0.50058875  0.66036332  0.99946386    -0.22700
C2779       C  0.94864711  0.86976049  0.98446713    -0.05600
C2780       C  0.92615360  0.88379193  0.48277558     0.00400
C2781       C  0.88999043  0.86165023  0.49442734    -0.08200
C2782       C  0.87660335  0.82395067  0.50407423    -0.05600
C2783       C  0.89865752  0.80923954  0.50251534     0.00300
C2784       C  0.93546301  0.83257685  0.99488795    -0.08100
C2785       C  0.95996325  0.81754070  0.99563321     0.62300
H2786       H  0.97669031  0.88811292  0.97708065     0.13000
H2787       H  0.84842516  0.80491618  0.51034974     0.13000
C2788       C  0.86541389  0.87686081  0.49414688     0.62500
F2789       F  0.99568795  0.84628662  0.99210899    -0.22700
F2790       F  0.95078603  0.79171629  0.96468482    -0.20000
F2791       F  0.95643304  0.79987627  0.03095614    -0.19700
F2792       F  0.86377429  0.88854806  0.45675496    -0.19700
F2793       F  0.87830090  0.90730120  0.52045133    -0.20100
F2794       F  0.83081176  0.84970955  0.50479827    -0.22700
C2795       C  0.64343711  0.60285449  0.48161308    -0.05600
C2796       C  0.62345933  0.56293984  0.48112548     0.00400
C2797       C  0.64141277  0.54391911  0.49057592    -0.08200
C2798       C  0.67916610  0.56555063  0.49390557    -0.05600
C2799       C  0.69880277  0.60475930  0.48924851     0.00300
C2800       C  0.68111405  0.62310208  0.98540633    -0.08100
C2801       C  0.70168762  0.66594220  0.98399129     0.62300
H2802       H  0.62992898  0.61663528  0.97709757     0.13000
H2803       H  0.69398638  0.55200740  0.49892327     0.13000
C2804       C  0.62179077  0.50144968  0.49670895     0.62500
F2805       F  0.67896328  0.67934128  0.98395578    -0.22700
F2806       F  0.72143733  0.67765868  0.95001934    -0.20000
F2807       F  0.72462676  0.68179256  0.01654603    -0.19700
F2808       F  0.60813960  0.48187855  0.46105039    -0.19700
F2809       F  0.59433423  0.98963202  0.52190599    -0.20100
F2810       F  0.64456942  0.99045993  0.51076339    -0.22700
C2811       C  0.86739644  0.68234150  0.39433188    -0.05600
C2812       C  0.83684472  0.67972677  0.41051031     0.00400
C2813       C  0.81776949  0.69047502  0.38593772    -0.08200
C2814       C  0.82108568  0.68807097  0.34534364    -0.05600
C2815       C  0.84357978  0.67715730  0.32881751     0.00300
C2816       C  0.87166944  0.68125127  0.35365204    -0.08100
C2817       C  0.90747671  0.68732065  0.34107709     0.62300
H2818       H  0.88893142  0.68642644  0.41365345     0.13000
H2819       H  0.80692829  0.69667352  0.32647818     0.13000
C2820       C  0.79633282  0.70762168  0.39885621     0.62500
F2821       F  0.93509659  0.72102784  0.35804843    -0.22700
F2822       F  0.91268647  0.68960513  0.30096625    -0.20000
F2823       F  0.91042885  0.65813509  0.35486766    -0.19700
F2824       F  0.79689955  0.71381420  0.43900359    -0.19700
F2825       F  0.76106183  0.68427113  0.38573867    -0.20100
F2826       F  0.81050417  0.74244915  0.38150994    -0.22700
C2827       C  0.82516586  0.69327016  0.10015914    -0.05600
C2828       C  0.82467251  0.66429205  0.07845824     0.00400
C2829       C  0.81572473  0.63096505  0.09865003    -0.08200
C2830       C  0.82198963  0.63435106  0.13927589    -0.05600
C2831       C  0.83212196  0.66784753  0.16051545     0.00300
C2832       C  0.82811989  0.69563739  0.14115066    -0.08100
C2833       C  0.82462170  0.72717935  0.15974730     0.62300
H2834       H  0.82158910  0.71360997  0.08497000     0.13000
H2835       H  0.81559514  0.60915789  0.15474154     0.13000
C2836       C  0.79632777  0.59069778  0.08137635     0.62500
F2837       F  0.85284825  0.76196826  0.14788550    -0.22700
F2838       F  0.82378260  0.72804308  0.20033417    -0.20000
F2839       F  0.79292621  0.72290051  0.14604477    -0.19700
F2840       F  0.81703596  0.57547178  0.08787251    -0.19700
F2841       F  0.78788006  0.58759773  0.04165592    -0.20100
F2842       F  0.76433214  0.56897042  0.10078990    -0.22700
C2843       C  0.83201409  0.67325261  0.95454212     0.30200
C2844       C  0.82880244  0.66915443  0.53447672     0.30200
C2845       C  0.84690742  0.65091003  0.97327796    -0.06000
C2846       C  0.85226231  0.71079043  0.97766226    -0.06800
C2847       C  0.79406274  0.65292843  0.97159295    -0.06600
C2848       C  0.84672629  0.65059304  0.51413576    -0.06000
C2849       C  0.85093921  0.70949254  0.51836350    -0.06800
C2850       C  0.79280686  0.65232004  0.51249210    -0.06600
C2851       C  0.86392585  0.63257827  0.52525017    -0.32000
N2852       N  0.87138211  0.61925090  0.99219823     0.14500
C2853       C  0.86087472  0.63015425  0.96033845    -0.32000
H2854       H  0.86344483  0.62323209  0.93011562     0.16400
C2855       C  0.87068810  0.74651866  0.53269954    -0.31000
N2856       N  0.88207492  0.76940046  0.50137237     0.13200
C2857       C  0.87140765  0.74799807  0.96776527    -0.31000
C2858       C  0.75764803  0.63470870  0.52339724    -0.31300
N2859       N  0.73731775  0.62375665  0.99002346     0.13700
H2860       H  0.74764213  0.62915033  0.55308128     0.16300
C2861       C  0.75882688  0.63439337  0.95817043    -0.31300
H2862       H  0.74934719  0.62882340  0.92762216     0.16300
H2863       H  0.87608441  0.75911222  0.93822559     0.16300
H2864       H  0.87040408  0.62871204  0.55498397     0.16400
H2865       H  0.87630798  0.75661320  0.56307429     0.16300
C2866       C  0.83804113  0.66893910  0.70429939     0.30200
C2867       C  0.84091024  0.67076628  0.78448809     0.30200
C2868       C  0.84584848  0.64043713  0.72320898    -0.06000
C2869       C  0.86778978  0.70601167  0.72348386    -0.06800
C2870       C  0.80390064  0.65998053  0.72459442    -0.06600
C2871       C  0.84649643  0.64066214  0.76461171    -0.06000
C2872       C  0.86836283  0.70736678  0.76419874    -0.06800
C2873       C  0.80458915  0.66017418  0.76522947    -0.06600
C2874       C  0.85812863  0.61720491  0.77577768    -0.32000
N2875       N  0.86618339  0.60454126  0.74273007     0.14500
C2876       C  0.85982307  0.61937865  0.71079578    -0.32000
H2877       H  0.86741816  0.61717274  0.68103256     0.16400
C2878       C  0.89457716  0.74363939  0.77615887    -0.31000
N2879       N  0.91046387  0.76381616  0.74351508     0.13200
C2880       C  0.89431082  0.74103862  0.71117500    -0.31000
C2881       C  0.76895802  0.64227678  0.77638994    -0.31300
N2882       N  0.74807086  0.63472662  0.74356842     0.13700
H2883       H  0.75868067  0.63355797  0.80579079     0.16300
C2884       C  0.76903891  0.64425064  0.71169463    -0.31300
H2885       H  0.75922345  0.63766073  0.68141977     0.16300
H2886       H  0.89945737  0.75028352  0.68083857     0.16300
H2887       H  0.86304451  0.61202138  0.80556453     0.16400
H2888       H  0.90042456  0.75509902  0.80608407     0.16300
O2889       O  0.56639627  0.50708849  0.96176263    -0.79900
O2890       O  0.96659760  0.55411332  0.93068274    -0.79900
O2891       O  0.54447088  0.59076742  0.90582486    -0.80000
O2892       O  0.98398852  0.01822247  0.50792019    -0.79900
O2893       O  0.50149630  0.57020324  0.86225379    -0.80000
O2894       O  0.50645155  0.98261547  0.50889649    -0.79900
O2895       O  0.93213785  0.51270779  0.97243009    -0.79900
O2896       O  0.57593102  0.56297584  0.94968768    -0.80000
C2897       C  0.58618012  0.54283200  0.96485836     1.09800
C2898       C  0.94272931  0.54327493  0.95697650     1.09600
C2899       C  0.52984183  0.59773177  0.87834120     1.09800
C2900       C  0.99796684  0.00358541  0.52729238     1.09700
O2901       O  0.96310832  0.93166934  0.93785176    -0.79900
O2902       O  0.97797576  0.49307362  0.84413271    -0.80000
O2903       O  0.57004754  0.01503505  0.88534563    -0.79900
O2904       O  0.91833962  0.96909823  0.91332243    -0.79900
O2905       O  0.92956498  0.01060927  0.86593432    -0.80000
O2906       O  0.52286959  0.95934488  0.89605535    -0.79900
O2907       O  0.93797969  0.94518958  0.98288311    -0.79900
O2908       O  0.53477744  0.53882561  0.83835642    -0.80000
Co2909     Co  0.51366982  0.97299651  0.94899134     1.51500
Co2910     Co  0.97250195  0.52017641  0.89045499     1.51700
Co2911     Co  0.55329864  0.55000856  0.89674810     1.51600
Co2912     Co  0.95983665  0.99294510  0.95591768     1.51500
O2913       O  0.50629975  0.51351230  0.92397386    -1.41900
C2914       C  0.94168211  0.92108333  0.96590217     1.09700
C2915       C  0.50534694  0.51210973  0.82191851     1.09800
C2916       C  0.55367817  0.97931118  0.88168510     1.09700
C2917       C  0.90790367  0.98012529  0.88319638     1.09700
O2918       O  0.57795781  0.51344142  0.72288162    -0.79900
O2919       O  0.97954159  0.55954683  0.69791370    -0.79900
O2920       O  0.56309442  0.56934369  0.61299665    -0.80000
O2921       O  0.97209823  0.98211845  0.75904373    -0.79900
O2922       O  0.53919341  0.58712331  0.65634755    -0.80000
O2923       O  0.53099322  0.02003912  0.75774862    -0.79900
O2924       O  0.93453632  0.50279102  0.71100318    -0.79900
O2925       O  0.58412132  0.55451845  0.68154326    -0.80000
C2926       C  0.59803428  0.54399788  0.70754794     1.09800
C2927       C  0.94920069  0.53850932  0.71271032     1.09600
C2928       C  0.56003603  0.59533532  0.62815388     1.09800
C2929       C  0.00243455  0.00479640  0.77714774     1.09700
O2930       O  0.00480987  0.94600239  0.73599446    -0.79900
O2931       O  0.99805169  0.53553714  0.58849308    -0.80000
O2932       O  0.57692555  0.01195804  0.61805919    -0.79900
O2933       O  0.93163243  0.95409166  0.64671492    -0.79900
O2934       O  0.93695526  0.00760360  0.63290618    -0.80000
O2935       O  0.54580895  0.96954650  0.66481953    -0.79900
O2936       O  0.96367631  0.92861265  0.69149344    -0.79900
O2937       O  0.51070661  0.49167887  0.59398070    -0.80000
Co2938     Co  0.52892581  0.99312168  0.70785769     1.51500
Co2939     Co  0.98997053  0.54594632  0.64631327     1.51700
Co2940     Co  0.54352088  0.51969679  0.64093624     1.51600
Co2941     Co  0.95421944  0.96980081  0.69980243     1.51500
O2942       O  0.50239003  0.51133685  0.67452773    -1.41900
C2943       C  0.97759860  0.92013112  0.71858094     1.09700
C2944       C  0.50203532  0.51007522  0.57195141     1.09800
C2945       C  0.56708627  0.98096932  0.63472235     1.09700
C2946       C  0.91916498  0.97159825  0.63053409     1.09700
C2947       C  0.66795869  0.85159692  0.80952797     0.30200
C2948       C  0.66681061  0.85057303  0.88935893     0.30200
C2949       C  0.65841799  0.87859166  0.82921793    -0.06000
C2950       C  0.63926422  0.81323182  0.82730024    -0.06800
C2951       C  0.70265620  0.86107894  0.83043921    -0.06600
C2952       C  0.65852753  0.87872634  0.87067566    -0.06000
C2953       C  0.63825282  0.81350483  0.86830212    -0.06800
C2954       C  0.70217706  0.86114389  0.87077668    -0.06600
C2955       C  0.63725111  0.89221529  0.88219914    -0.32000
N2956       N  0.62550870  0.90126127  0.84974331     0.14500
C2957       C  0.63675510  0.89146266  0.81733013    -0.32000
H2958       H  0.62798591  0.89153663  0.78743113     0.16400
C2959       C  0.61176937  0.77800488  0.87955220    -0.31000
N2960       N  0.59756811  0.75531146  0.84682416     0.13200
C2961       C  0.61395370  0.77642649  0.81464125    -0.31000
C2962       C  0.73681532  0.87580732  0.88437073    -0.31300
N2963       N  0.75806785  0.88384443  0.85273048     0.13700
H2964       H  0.74630957  0.88264192  0.91476926     0.16300
C2965       C  0.73761360  0.87537250  0.81948862    -0.31300
H2966       H  0.74793339  0.88205127  0.78982743     0.16300
H2967       H  0.60922436  0.76515695  0.78466283     0.16300
H2968       H  0.62906613  0.89337798  0.91197306     0.16400
H2969       H  0.60521474  0.76842336  0.90956004     0.16300
C2970       C  0.67425006  0.84911213  0.56002332     0.30200
C2971       C  0.67605114  0.84744178  0.64005712     0.30200
C2972       C  0.65767261  0.86854483  0.58155112    -0.06000
C2973       C  0.65229537  0.80907381  0.57774686    -0.06800
C2974       C  0.71137446  0.86602956  0.57937037    -0.06600
C2975       C  0.65900614  0.86814144  0.62246867    -0.06000
C2976       C  0.65286729  0.80854489  0.61892011    -0.06800
C2977       C  0.71234460  0.86568820  0.62000658    -0.06600
C2978       C  0.64123980  0.88475607  0.63640899    -0.32000
N2979       N  0.63037731  0.89605531  0.60508893     0.14500
C2980       C  0.63889029  0.88507609  0.57137476    -0.32000
H2981       H  0.63188434  0.88893074  0.54196502     0.16400
C2982       C  0.63005370  0.77160158  0.62954484    -0.31000
N2983       N  0.61720261  0.74948646  0.59633394     0.13200
C2984       C  0.62980372  0.77184124  0.56450962    -0.31000
C2985       C  0.74785623  0.88303413  0.63184944    -0.31300
N2986       N  0.76822656  0.89377185  0.59908315     0.13700
H2987       H  0.75816990  0.88774720  0.66187508     0.16300
C2988       C  0.74625097  0.88320034  0.56674967    -0.31300
H2989       H  0.75506330  0.88823047  0.53645323     0.16300
H2990       H  0.62319196  0.76126671  0.53431329     0.16300
H2991       H  0.63646326  0.88860120  0.66691415     0.16400
H2992       H  0.62352425  0.76111926  0.65919749     0.16300
C2993       C  0.67304698  0.82254846  0.74793223    -0.05600
C2994       C  0.67339862  0.85343488  0.76574555     0.00400
C2995       C  0.68850802  0.88741395  0.74398331    -0.08200
C2996       C  0.68877638  0.88380662  0.70308589    -0.05600
C2997       C  0.67975558  0.84951662  0.68436304     0.00300
C2998       C  0.67980456  0.82190353  0.70792283    -0.08100
C2999       C  0.69252764  0.79592447  0.69526810     0.62300
H3000       H  0.67097392  0.80042532  0.76614075     0.13000
H3001       H  0.69759989  0.90861868  0.68552670     0.13000
C3002       C  0.70764932  0.92800377  0.76083166     0.62500
F3003       F  0.72226788  0.80479438  0.71833238    -0.22700
F3004       F  0.70277107  0.79967899  0.65641841    -0.20000
F3005       F  0.66598755  0.75852755  0.70147649    -0.19700
F3006       F  0.73774356  0.95129801  0.73891095    -0.19700
F3007       F  0.71986502  0.93170066  0.79929958    -0.20100
F3008       F  0.68514135  0.94146147  0.75828596    -0.22700
C3009       C  0.67472685  0.82301467  0.99413691    -0.05600
C3010       C  0.67624956  0.85250506  0.51593811     0.00400
C3011       C  0.68533264  0.88599878  0.99572463    -0.08200
C3012       C  0.67921798  0.88274327  0.95504470    -0.05600
C3013       C  0.67035281  0.84976227  0.93344346     0.00300
C3014       C  0.67347805  0.82158361  0.95307921    -0.08100
C3015       C  0.67784665  0.79056965  0.93471034     0.62300
H3016       H  0.67721656  0.80197362  0.00931557     0.13000
H3017       H  0.68492423  0.90782272  0.93976821     0.13000
C3018       C  0.70524961  0.92641544  0.51288297     0.62500
F3019       F  0.70836937  0.79381757  0.95091313    -0.22700
F3020       F  0.68163874  0.79160027  0.89440078    -0.20000
F3021       F  0.64857085  0.75542582  0.94399368    -0.19700
F3022       F  0.71517585  0.92978981  0.55215570    -0.19700
F3023       F  0.68423771  0.94153077  0.50803336    -0.20100
F3024       F  0.73598788  0.94863167  0.99262995    -0.22700
C3025       C  0.55177702  0.64646165  0.60925167    -0.05600
C3026       C  0.57502003  0.63303897  0.61100209     0.00400
C3027       C  0.61136664  0.65714814  0.60067459    -0.08200
C3028       C  0.62417130  0.69546307  0.59375100    -0.05600
C3029       C  0.60142138  0.70935892  0.59581592     0.00300
C3030       C  0.56443072  0.68435062  0.60148799    -0.08100
C3031       C  0.53886397  0.69807374  0.60007451     0.62300
H3032       H  0.52363071  0.62723776  0.61567205     0.13000
H3033       H  0.65238634  0.71541840  0.58840506     0.13000
C3034       C  0.63654013  0.64297188  0.59835043     0.62500
F3035       F  0.50337590  0.66844591  0.60279405    -0.22700
F3036       F  0.54246996  0.71573084  0.56472280    -0.20000
F3037       F  0.54668954  0.72357796  0.63100089    -0.19700
F3038       F  0.62350063  0.61381660  0.57035225    -0.19700
F3039       F  0.63906732  0.62986758  0.63461921    -0.20100
F3040       F  0.67074164  0.67126409  0.58765976    -0.22700
C3041       C  0.86551184  0.97100901  0.60598377    -0.05600
C3042       C  0.88158383  0.95020574  0.61365731     0.00400
C3043       C  0.85995557  0.90980177  0.60938758    -0.08200
C3044       C  0.82261852  0.89214922  0.60299873    -0.05600
C3045       C  0.80667234  0.91320713  0.59925509     0.00300
C3046       C  0.82833026  0.95305869  0.59872071    -0.08100
C3047       C  0.81169771  0.97623759  0.59177747     0.62300
H3048       H  0.88190533  0.00166016  0.60779811     0.13000
H3049       H  0.80516335  0.86153312  0.60237730     0.13000
C3050       C  0.87520669  0.88475673  0.61226062     0.62500
F3051       F  0.83682883  0.51569558  0.59914678    -0.22700
F3052       F  0.78750589  0.96962809  0.62109104    -0.20000
F3053       F  0.79391141  0.96604697  0.55549266    -0.19700
F3054       F  0.88286693  0.88211315  0.65130660    -0.19700
F3055       F  0.90610056  0.89948154  0.59047542    -0.20100
F3056       F  0.85105191  0.84839545  0.59752685    -0.22700
C3057       C  0.61934999  0.97760882  0.62143676    -0.05600
C3058       C  0.58189801  0.95890531  0.62091844     0.00400
C3059       C  0.56032019  0.92015802  0.60944323    -0.08200
C3060       C  0.57733162  0.90015844  0.60313417    -0.05600
C3061       C  0.61467934  0.91825187  0.60762550     0.00300
C3062       C  0.63627395  0.95768473  0.61583194    -0.08100
C3063       C  0.67689249  0.97844966  0.61945759     0.62300
H3064       H  0.63519172  0.00767837  0.62886706     0.13000
H3065       H  0.56172953  0.87014316  0.59559333     0.13000
C3066       C  0.52012050  0.90082542  0.60208074     0.62500
F3067       F  0.69289461  0.51646844  0.62575007    -0.22700
F3068       F  0.69041969  0.97349019  0.58489294    -0.20000
F3069       F  0.68666140  0.96463493  0.65057351    -0.19700
F3070       F  0.51372304  0.92081222  0.57468208    -0.19700
F3071       F  0.50322247  0.89946916  0.63664668    -0.20100
F3072       F  0.50493873  0.86407392  0.58752900    -0.22700
C3073       C  0.60046023  0.69935332  0.85312934    -0.05600
C3074       C  0.57942588  0.71482388  0.84832079     0.00400
C3075       C  0.54168492  0.69130160  0.84989729    -0.08200
C3076       C  0.52586324  0.65245387  0.85766127    -0.05600
C3077       C  0.54714408  0.63732888  0.86499630     0.00300
C3078       C  0.58516760  0.66099575  0.86155123    -0.08100
C3079       C  0.61000033  0.64641478  0.86694772     0.60700
H3080       H  0.62934861  0.71833784  0.85208069     0.13000
H3081       H  0.49699228  0.63413531  0.85997475     0.13000
C3082       C  0.51880778  0.70789893  0.84426513     0.62500
F3083       F  0.64430295  0.67202641  0.85403965    -0.22700
F3084       F  0.59691208  0.61296727  0.84539176    -0.20000
F3085       F  0.61276849  0.64038111  0.90647984    -0.19700
F3086       F  0.52631765  0.72570315  0.80840723    -0.19700
F3087       F  0.52631039  0.73414507  0.87431494    -0.20100
F3088       F  0.48253285  0.68023630  0.84454145    -0.22700
C3089       C  0.81284070  0.94593858  0.84903823    -0.05600
C3090       C  0.79635180  0.90703373  0.85470193     0.00400
C3091       C  0.81703735  0.89181686  0.86492340    -0.08200
C3092       C  0.85402380  0.91673253  0.87167685    -0.05600
C3093       C  0.87040821  0.95609398  0.86882011     0.00300
C3094       C  0.84989990  0.97113727  0.85576258    -0.08100
C3095       C  0.86713479  0.51429398  0.85138870     0.62300
H3096       H  0.79595798  0.95633517  0.84056808     0.13000
H3097       H  0.87037165  0.90569110  0.88013658     0.13000
C3098       C  0.79978643  0.84947416  0.86869445     0.62500
F3099       F  0.84144403  0.52257547  0.84220675    -0.22700
F3100       F  0.89152552  0.52715249  0.82118611    -0.20000
F3101       F  0.88442505  0.53384673  0.88603338    -0.19700
F3102       F  0.78280055  0.83131992  0.83331645    -0.19700
F3103       F  0.77479461  0.83629645  0.89826594    -0.20100
F3104       F  0.82486145  0.84027767  0.87780240    -0.22700
C3105       C  0.55207203  0.92049694  0.86088661    -0.05600
C3106       C  0.57212390  0.96051430  0.86514689     0.00400
C3107       C  0.60973660  0.98064449  0.85736807    -0.08200
C3108       C  0.62603730  0.95983389  0.85079402    -0.05600
C3109       C  0.60630916  0.92024835  0.85029266     0.00300
C3110       C  0.56867382  0.90011942  0.85311557    -0.08100
C3111       C  0.54672691  0.85728326  0.84829503     0.62300
H3112       H  0.52332809  0.90499145  0.86509575     0.13000
H3113       H  0.65484100  0.97427787  0.84742502     0.13000
C3114       C  0.63369126  0.52364764  0.85708608     0.62500
F3115       F  0.51021217  0.84260731  0.84993788    -0.22700
F3116       F  0.55597123  0.84148526  0.87791164    -0.20000
F3117       F  0.55357005  0.84685442  0.81205195    -0.19700
F3118       F  0.63706801  0.53851412  0.89482317    -0.19700
F3119       F  0.61887237  0.53765074  0.83188417    -0.20100
F3120       F  0.66793613  0.53626366  0.84410166    -0.22700
C3121       C  0.92345582  0.60860211  0.74690760    -0.05600
C3122       C  0.88609303  0.58633498  0.74146244     0.00400
C3123       C  0.86925058  0.54760048  0.73084088    -0.08200
C3124       C  0.89070922  0.53243088  0.72450588    -0.05600
C3125       C  0.92856829  0.55523904  0.72720299     0.00300
C3126       C  0.94524515  0.59396900  0.73958331    -0.08100
C3127       C  0.98579703  0.62044059  0.74379788     0.62300
H3128       H  0.93551416  0.63830264  0.75482181     0.13000
H3129       H  0.87797192  0.50300302  0.71504347     0.13000
C3130       C  0.82877494  0.52299431  0.72523311     0.62500
F3131       F  0.99534134  0.65398696  0.76335800    -0.22700
F3132       F  0.00083072  0.62942000  0.70680236    -0.20000
F3133       F  0.49860027  0.60000647  0.76822887    -0.19700
F3134       F  0.81805544  0.53586193  0.69402910    -0.19700
F3135       F  0.81246160  0.52464853  0.75923258    -0.20100
F3136       F  0.81711066  0.48545417  0.71724205    -0.22700
C3137       C  0.91443267  0.82309872  0.75622394    -0.05600
C3138       C  0.93078328  0.80417464  0.74256927     0.00400
C3139       C  0.96512075  0.82457748  0.72563019    -0.08200
C3140       C  0.98063281  0.86333331  0.71945871    -0.05600
C3141       C  0.96240113  0.88115199  0.72963765     0.00300
C3142       C  0.93017868  0.86184638  0.75061014    -0.08100
C3143       C  0.91347904  0.88254105  0.76800992     0.62300
H3144       H  0.88863474  0.80685881  0.77023951     0.13000
H3145       H  0.00654978  0.87974332  0.70573520     0.13000
C3146       C  0.98518331  0.80557047  0.71472614     0.62500
F3147       F  0.88209099  0.85830513  0.78749389    -0.22700
F3148       F  0.90547124  0.89950721  0.73853320    -0.20000
F3149       F  0.93748961  0.91009106  0.79493067    -0.19700
F3150       F  0.96711387  0.77907699  0.68449592    -0.19700
F3151       F  0.98795607  0.78774145  0.74731895    -0.20100
F3152       F  0.01958004  0.83148343  0.70223204    -0.22700
C3153       C  0.65391001  0.60597864  0.71910488    -0.05600
C3154       C  0.63611773  0.56659539  0.72100532     0.00400
C3155       C  0.65508595  0.54987689  0.73568432    -0.08200
C3156       C  0.69181470  0.57391500  0.74537907    -0.05600
C3157       C  0.70969489  0.61298987  0.74101093     0.00300
C3158       C  0.69055240  0.62954431  0.72886947    -0.08100
C3159       C  0.70894678  0.67205825  0.72638616     0.62300
H3160       H  0.63885415  0.61818822  0.70960000     0.13000
H3161       H  0.70757781  0.56249668  0.75485928     0.13000
C3162       C  0.63803789  0.50721432  0.73991165     0.62500
F3163       F  0.68490247  0.68249134  0.71658945    -0.22700
F3164       F  0.73486920  0.68542576  0.69788880    -0.20000
F3165       F  0.72488362  0.68887026  0.76256757    -0.19700
F3166       F  0.62279385  0.48843349  0.70441565    -0.19700
F3167       F  0.61115880  0.99257380  0.76852289    -0.20100
F3168       F  0.66298978  0.49842692  0.75126811    -0.22700
C3169       C  0.88807017  0.54250923  0.97213572    -0.05600
C3170       C  0.92579851  0.56389937  0.96918224     0.00400
C3171       C  0.94559559  0.60249739  0.98071434    -0.08200
C3172       C  0.92670938  0.61984546  0.99050812    -0.05600
C3173       C  0.88905338  0.59911329  0.98980786     0.00300
C3174       C  0.86920235  0.55974334  0.98187842    -0.08100
C3175       C  0.82837313  0.53665346  0.98272874     0.62300
H3176       H  0.87335410  0.51239908  0.96500047     0.13000
H3177       H  0.94101135  0.64993857  0.99741462     0.13000
C3178       C  0.98617746  0.62447906  0.98382179     0.62500
F3179       F  0.81429008  0.49823872  0.97731539    -0.22700
F3180       F  0.81451070  0.54787865  0.95312928    -0.20000
F3181       F  0.81698259  0.54318045  0.51779059    -0.19700
F3182       F  0.50031277  0.62789034  0.94597225    -0.19700
F3183       F  0.49662740  0.60506978  0.50730185    -0.20100
F3184       F  0.50005219  0.66005304  0.49965076    -0.22700
C3185       C  0.94877526  0.86990984  0.48502880    -0.05600
C3186       C  0.92583546  0.88335566  0.98138068     0.00400
C3187       C  0.88963376  0.86108601  0.99309133    -0.08200
C3188       C  0.87645868  0.82354915  0.00340171    -0.05600
C3189       C  0.89867602  0.80902294  0.00251394     0.00300
C3190       C  0.93540776  0.83257605  0.49471718    -0.08100
C3191       C  0.95969474  0.81725049  0.49472709     0.62300
H3192       H  0.97680328  0.88818381  0.47753479     0.13000
H3193       H  0.84827772  0.80442023  0.00959534     0.13000
C3194       C  0.86467416  0.87583413  0.99203032     0.62500
F3195       F  0.99541262  0.84577703  0.49056649    -0.22700
F3196       F  0.94991324  0.79127269  0.46379729    -0.20000
F3197       F  0.95660219  0.79969447  0.53000688    -0.19700
F3198       F  0.86287825  0.88673762  0.95424837    -0.19700
F3199       F  0.87717713  0.90665829  0.01772362    -0.20100
F3200       F  0.83017616  0.84857690  0.00293233    -0.22700
C3201       C  0.64364377  0.60188845  0.98173184    -0.05600
C3202       C  0.62364759  0.56198275  0.98097539     0.00400
C3203       C  0.64159968  0.54284794  0.98996424    -0.08200
C3204       C  0.67935324  0.56448722  0.99347734    -0.05600
C3205       C  0.69899842  0.60374033  0.98911965     0.00300
C3206       C  0.68091212  0.62410946  0.48545723    -0.08100
C3207       C  0.70147533  0.66696255  0.48419492     0.62300
H3208       H  0.62972038  0.61756000  0.47669722     0.13000
H3209       H  0.69418118  0.55092338  0.99829384     0.13000
C3210       C  0.62201374  0.50023973  0.99519663     0.62500
F3211       F  0.67873688  0.68034033  0.48481560    -0.22700
F3212       F  0.72089842  0.67878874  0.44999536    -0.20000
F3213       F  0.72472933  0.68273543  0.51651504    -0.19700
F3214       F  0.60840277  0.48134329  0.95921068    -0.19700
F3215       F  0.59393275  0.98951839  0.02238682    -0.20100
F3216       F  0.64425412  0.99032999  0.01193596    -0.22700
C3217       C  0.86741930  0.68160636  0.89426927    -0.05600
C3218       C  0.83703685  0.67924172  0.91061814     0.00400
C3219       C  0.81796626  0.69009752  0.88618113    -0.08200
C3220       C  0.82116362  0.68775443  0.84555999    -0.05600
C3221       C  0.84363573  0.67692359  0.82881961     0.00300
C3222       C  0.87166465  0.68072305  0.85355553    -0.08100
C3223       C  0.90742853  0.68672687  0.84085814     0.62300
H3224       H  0.88892447  0.68547219  0.91348536     0.13000
H3225       H  0.80696637  0.69641740  0.82684687     0.13000
C3226       C  0.79659490  0.70727008  0.89926131     0.62500
F3227       F  0.93511345  0.72027964  0.85801800    -0.22700
F3228       F  0.91267792  0.68926483  0.80075570    -0.20000
F3229       F  0.91025593  0.65736868  0.85433851    -0.19700
F3230       F  0.79706732  0.71323622  0.93943901    -0.19700
F3231       F  0.76134689  0.68406017  0.88601490    -0.20100
F3232       F  0.81089287  0.74221441  0.88214400    -0.22700
C3233       C  0.82545692  0.69421474  0.60010790    -0.05600
C3234       C  0.82464219  0.66504362  0.57839127     0.00400
C3235       C  0.81566356  0.63177226  0.59863680    -0.08200
C3236       C  0.82215455  0.63526938  0.63922071    -0.05600
C3237       C  0.83269055  0.66892327  0.66042541     0.00300
C3238       C  0.82877622  0.69678473  0.64109399    -0.08100
C3239       C  0.82560840  0.72852215  0.65975424     0.62300
H3240       H  0.82181726  0.71452759  0.58495648     0.13000
H3241       H  0.81560090  0.61003499  0.65469873     0.13000
C3242       C  0.79597521  0.59146699  0.58143880     0.62500
F3243       F  0.85393820  0.76320624  0.64780166    -0.22700
F3244       F  0.82490209  0.72940966  0.70034903    -0.20000
F3245       F  0.79397771  0.72450412  0.64622375    -0.19700
F3246       F  0.81647801  0.57598678  0.58782994    -0.19700
F3247       F  0.78743067  0.58834344  0.54174620    -0.20100
F3248       F  0.76400589  0.56999568  0.60097319    -0.22700
loop_ 
_geom_bond_atom_site_label_1 
_geom_bond_atom_site_label_2 
_geom_bond_distance 
_geom_bond_site_symmetry_2 
_ccdc_geom_bond_type 
C1            C3   1.543       .  S
C1            C5   1.540       .  S
C1            C4   1.521       .  S
C1          C376   1.510       .  S
C2            C6   1.533       .  S
C2            C8   1.526       .  S
C2            C7   1.542       .  S
C2          C392   1.501       .  S
C3           C11   1.375       .  A
C3          C412   1.388       .  A
C4           C15   1.364       .  A
C4          C413   1.386       .  A
C5           C19   1.381       .  A
C5          C414   1.388       .  A
C6            C9   1.378       .  A
C6          C409   1.389   1_554  A
C7           C13   1.383       .  A
C7          C410   1.386   1_554  A
C8           C16   1.371       .  A
C8          C411   1.388   1_554  A
C9           H22   1.082       .  S
C9          N416   1.352   1_554  A
N10          C11   1.350       .  A
N10         C415   1.352       .  A
N10         C331   1.425       .  S
C11          H12   1.082       .  S
C13          H23   1.079       .  S
C13          N14   1.352       .  A
N14         C421   1.348   1_554  A
N14         C753   1.418       .  S
C15          H21   1.085       .  S
C15         N420   1.347       .  A
C16          H18   1.079       .  S
C16         N423   1.351   1_554  A
N17          C19   1.359       .  A
N17         C422   1.352       .  A
N17         C363   1.431       .  S
C19          H20   1.085       .  S
C24          C26   1.553       .  S
C24          C28   1.517       .  S
C24          C27   1.521       .  S
C24         C395   1.501       .  S
C25          C29   1.550       .  S
C25          C31   1.548       .  S
C25          C30   1.531       .  S
C25         C379   1.510       .  S
C26          C34   1.380       .  A
C26          C29   1.401       .  A
C27          C38   1.372       .  A
C27          C30   1.378       .  A
C28          C42   1.371       .  A
C28          C31   1.375       .  A
C29          C32   1.385       .  A
C30          C36   1.374       .  A
C31          C39   1.390       .  A
C32          H45   1.080       .  S
C32          N33   1.359       .  A
N33          C34   1.356       .  A
N33         C280   1.439       .  S
C34          H35   1.083       .  S
C36          H46   1.081       .  S
C36          N37   1.355       .  A
N37          C38   1.354       .  A
N37         C296   1.426       .  S
C38          H44   1.086       .  S
C39          H41   1.083       .  S
C39          N40   1.356       .  A
N40          C42   1.348       .  A
N40         C315   1.429       .  S
C42          H43   1.080       .  S
O47          C55   1.266       .  A
O47        Co879   2.012   1_545  S
O48          C56   1.276       .  A
O48         Co68   2.067       .  S
O49          C57   1.261       .  A
O49         Co69   1.995       .  S
O50          C58   1.268       .  A
O50        Co476   1.984   1_554  S
O51          C57   1.245       .  A
O51       Co1692   1.950   1_455  S
O52        C1682   1.292   1_455  A
O52        Co473   2.108   1_554  S
O53          C56   1.231       .  A
O53        Co882   1.893   1_545  S
O54          C55   1.263       .  A
O54         Co69   1.970       .  S
C55         C360   1.496       .  S
C56         C328   1.470       .  S
C57         C235   1.456       .  S
C58        O1676   1.292       .  A
C58        C2538   1.533       .  S
O59          C72   1.254       .  A
O59       Co1691   1.974       .  S
O60        C1697   1.274   1_565  A
O60         Co68   2.010   1_565  S
O61          C74   1.266       .  A
O61        Co881   2.016       .  S
O62          C75   1.304       .  A
O62         Co70   2.090       .  S
O63          C75   1.268       .  A
O63        Co880   1.865       .  S
O64          C74   1.261       .  A
O64         Co67   1.983       .  S
O65          C72   1.237       .  A
O65         Co70   1.940       .  S
O66          C73   1.289       .  A
O66         Co69   2.091       .  S
Co67        O859   2.005       .  S
Co67        O458   2.108       .  S
Co67       O1683   1.974   1_455  S
Co67        O883   2.092       .  S
Co68       O1675   2.030       .  S
Co68        O875   1.865       .  S
Co68       O1695   2.009       .  S
Co69        O873   2.015       .  S
Co69         O71   2.081       .  S
Co70        O456   1.984       .  S
Co70        O865   1.889       .  S
Co70       O2507   2.058       .  S
O71        Co879   2.094   1_545  S
O71       Co1692   2.035   1_455  S
O71       Co2506   2.028   1_445  S
C72         C344   1.450       .  S
C73        O1684   1.261   1_455  A
C73        C2523   1.511       .  S
C74         C264   1.509       .  S
C75         C251   1.468       .  S
O76          C84   1.228       .  A
O76        Co908   1.895   1_545  S
O77          C85   1.258       .  A
O77         Co97   1.963       .  S
O78          C86   1.265       .  A
O78         Co98   2.027       .  S
O79          C87   1.291       .  A
O79         Co99   2.099       .  S
O80          C86   1.250       .  A
O80       Co1721   1.949   1_455  S
O81        C1711   1.269       .  A
O81         Co96   1.986       .  S
O82          C85   1.270       .  A
O82        Co911   2.022   1_545  S
O83          C84   1.280       .  A
O83         Co98   2.075       .  S
C84         C312   1.480       .  S
C85         C283   1.497       .  S
C86         C184   1.478       .  S
C87        O1705   1.269       .  A
C87        C2509   1.531       .  S
O88         C101   1.237       .  A
O88       Co1720   1.942       .  S
O89        C1726   1.283       .  A
O89         Co97   2.073       .  S
O90         C103   1.270       .  A
O90        Co910   1.859       .  S
O91         C104   1.256       .  A
O91         Co99   1.968       .  S
O92         C104   1.271       .  A
O92        Co909   2.019       .  S
O93         C103   1.304       .  A
O93         Co96   2.098       .  S
O94         C101   1.256       .  A
O94         Co99   1.993       .  S
O95         C102   1.274   1_565  A
O95         Co98   2.014   1_565  S
Co96        O888   1.892       .  S
Co96       O1712   1.943       .  S
Co96        O912   2.055       .  S
Co97       O1704   1.950       .  S
Co97        O904   2.016       .  S
Co97       O1724   2.052       .  S
Co98        O902   1.862       .  S
Co98        O100   2.013       .  S
Co99        O894   2.021       .  S
Co99       O2536   2.089       .  S
O100      Co1721   2.048   1_455  S
O100      Co2535   2.082   1_445  S
O100       Co908   2.056   1_545  S
C101        C299   1.450       .  S
C102       O1713   1.283   1_455  A
C102       C2494   1.530   1_455  S
C103        C216   1.459       .  S
C104        C200   1.498       .  S
C105        C107   1.544       .  S
C105        C109   1.521       .  S
C105        C108   1.545       .  S
C105        C152   1.499       .  S
C106        C110   1.550       .  S
C106        C112   1.518       .  S
C106        C111   1.529       .  S
C106        C171   1.502       .  S
C107        C115   1.385       .  A
C107        C110   1.403       .  A
C108        C119   1.380       .  A
C108        C111   1.390       .  A
C109        C123   1.377       .  A
C109        C112   1.366       .  A
C110        C113   1.384       .  A
C111        C117   1.370       .  A
C112        C120   1.373       .  A
C113        H126   1.083       .  S
C113        N114   1.353       .  A
N114        C115   1.354       .  A
N114        C267   1.438       .  S
C115        H116   1.081       .  S
C117        H127   1.083       .  S
C117        N118   1.353       .  A
N118        C119   1.358       .  A
N118        C232   1.426       .  S
C119        H125   1.081       .  S
C120        H122   1.081       .  S
C120        N121   1.353       .  A
N121        C123   1.352       .  A
N121        C248   1.423       .  S
C123        H124   1.084       .  S
C128        C130   1.534       .  S
C128        C132   1.527       .  S
C128        C131   1.554       .  S
C128        C168   1.501       .  S
C129        C133   1.540       .  S
C129        C135   1.525       .  S
C129        C134   1.536       .  S
C129        C155   1.502       .  S
C130        C138   1.378       .  A
C130        C133   1.387       .  A
C131        C142   1.386       .  A
C131        C134   1.395       .  A
C132        C146   1.379       .  A
C132        C135   1.376       .  A
C133        C136   1.376       .  A
C134        C140   1.373       .  A
C135        C143   1.376       .  A
C136        H149   1.082       .  S
C136        N137   1.351       .  A
N137        C138   1.352       .  A
N137        C219   1.425       .  S
C138        H139   1.080       .  S
C140        H150   1.082       .  S
C140        N141   1.352       .  A
N141        C142   1.355       .  A
N141        C187   1.431       .  S
C142        H148   1.079       .  S
C143        H145   1.080       .  S
C143        N144   1.357       .  A
N144        C146   1.355       .  A
N144        C203   1.433       .  S
C146        H147   1.084       .  S
C151        C152   1.409       .  A
C151        C156   1.393       .  A
C151        H158   1.084       .  S
C152        C153   1.424       .  A
C153        C160   1.527       .  S
C153        C154   1.390       .  A
C154        C155   1.403       .  A
C154        H159   1.084       .  S
C155        C156   1.416       .  A
C156        C157   1.524       .  S
C157        F161   1.384       .  S
C157        F162   1.379       .  S
C157        F163   1.383       .  S
C160        F164   1.385       .  S
C160        F165   1.378       .  S
C160        F166   1.381       .  S
C167        C172   1.390       .  A
C167        C574   1.396       .  A
C167        H174   1.081       .  S
C168        C573   1.396   1_554  A
C168        C575   1.423   1_554  A
C169        C582   1.526       .  S
C169        C170   1.390       .  A
C169        C574   1.422       .  A
C170        C171   1.403       .  A
C170        H175   1.081       .  S
C171        C172   1.431       .  A
C172        C173   1.531       .  S
C173        F177   1.385       .  S
C173        F178   1.375       .  S
C173        F179   1.384       .  S
C176        C575   1.527   1_554  S
C176        F180   1.377       .  S
C176        F181   1.383       .  S
C176        F588   1.384   1_554  S
F182        C582   1.384       .  S
C183        C184   1.409       .  A
C183        C188   1.400       .  A
C183        H190   1.084       .  S
C184        C185   1.414       .  A
C185        C192   1.515       .  S
C185        C186   1.410       .  A
C186        C187   1.405       .  A
C186        H191   1.083       .  S
C187        C188   1.405       .  A
C188        C189   1.515       .  S
C189        F193   1.385       .  S
C189        F194   1.383       .  S
C189        F195   1.382       .  S
C192        F196   1.383       .  S
C192        F197   1.382       .  S
C192        F198   1.384       .  S
C199        C200   1.411       .  A
C199        C204   1.405       .  A
C199        H206   1.082       .  S
C200        C201   1.431       .  A
C201        C208   1.522       .  S
C201        C202   1.409       .  A
C202        C203   1.396       .  A
C202        H207   1.083       .  S
C203        C204   1.407       .  A
C204        C205   1.516       .  S
C205        F210   1.383       .  S
C205        F211   1.382       .  S
C205       F1021   1.384       .  S
C208        F212   1.382       .  S
C208        F213   1.383       .  S
C208        F214   1.386       .  S
F209       C1017   1.384   1_545  S
C215        C216   1.397       .  A
C215        C220   1.396       .  A
C215        H222   1.084       .  S
C216        C217   1.413       .  A
C217        C224   1.518       .  S
C217        C218   1.405       .  A
C218        C219   1.400       .  A
C218        H223   1.083       .  S
C219        C220   1.413       .  A
C220        C221   1.517       .  S
C221        F226   1.380       .  S
C221        F227   1.382       .  S
C221       F1037   1.385       .  S
C224        F228   1.383       .  S
C224        F229   1.379       .  S
C224        F230   1.384       .  S
F225       C1033   1.385   1_545  S
C231        C232   1.402       .  A
C231        C236   1.400       .  A
C231        H238   1.082       .  S
C232        C233   1.414       .  A
C233        C240   1.515       .  S
C233        C234   1.401       .  A
C234        C235   1.400       .  A
C234        H239   1.084       .  S
C235        C236   1.410       .  A
C236        C237   1.520       .  S
C237        F241   1.383       .  S
C237        F242   1.383       .  S
C237        F243   1.383       .  S
C240        F244   1.382       .  S
C240        F245   1.383       .  S
C240        F246   1.383   1_455  S
C247        C248   1.398       .  A
C247        C252   1.402       .  A
C247        H254   1.083       .  S
C248        C249   1.406       .  A
C249        C256   1.515       .  S
C249        C250   1.399       .  A
C250        C251   1.404       .  A
C250        H255   1.083       .  S
C251        C252   1.421       .  A
C252       C1065   1.522       .  S
C253       C1064   1.522   1_545  S
C253        F257   1.385       .  S
C253        F258   1.383       .  S
C253        F259   1.380       .  S
C256        F260   1.383       .  S
C256        F261   1.382       .  S
C256        F262   1.385       .  S
C263        C264   1.416       .  A
C263        C268   1.413       .  A
C263        H270   1.083       .  S
C264        C265   1.432       .  A
C265       C1084   1.523       .  S
C265        C266   1.411       .  A
C266        C267   1.397       .  A
C266        H271   1.083       .  S
C267        C268   1.407       .  A
C268        C269   1.516       .  S
C269        F273   1.384       .  S
C269        F274   1.383       .  S
C269        F275   1.384       .  S
C272       C1077   1.523   1_545  S
C272        F276   1.382       .  S
C272        F277   1.384       .  S
C272        F278   1.385       .  S
C279        C280   1.399       .  A
C279        C284   1.410       .  A
C279        H286   1.083       .  S
C280        C281   1.410       .  A
C281        C288   1.516       .  S
C281        C282   1.410       .  A
C282        C283   1.411       .  A
C282        H287   1.083       .  S
C283        C284   1.426       .  A
C284        C285   1.520       .  S
C285        F289   1.382       .  S
C285        F290   1.384       .  S
C285       F1915   1.384       .  S
C288        F292   1.383       .  S
C288        F293   1.383       .  S
C288        F294   1.385   1_545  S
F291       C1909   1.384       .  S
C295        C296   1.401       .  A
C295        C300   1.396       .  A
C295        H302   1.083       .  S
C296        C297   1.414       .  A
C297        C304   1.516       .  S
C297        C298   1.401       .  A
C298        C299   1.399       .  A
C298        H303   1.083       .  S
C299        C300   1.408       .  A
C300        C301   1.519       .  S
C301        F305   1.384       .  S
C301        F306   1.382       .  S
C301        F307   1.384       .  S
C304        F308   1.381       .  S
C304        F309   1.383       .  S
C304        F310   1.385       .  S
C311        C312   1.397       .  A
C311        C316   1.401       .  A
C311        H318   1.082       .  S
C312        C313   1.437       .  A
C313        C320   1.529       .  S
C313        C314   1.405       .  A
C314        C315   1.393       .  A
C314        H319   1.082       .  S
C315        C316   1.410       .  A
C316        C317   1.511       .  S
C317        F321   1.385       .  S
C317        F322   1.381       .  S
C317        F323   1.383       .  S
C320        F324   1.377   1_545  S
C320        F326   1.387   1_545  S
C320       F1137   1.380   1_545  S
F325       C1132   1.380       .  S
C327        C328   1.410       .  A
C327        C332   1.401       .  A
C327        H334   1.084       .  S
C328        C329   1.407       .  A
C329        C336   1.512       .  S
C329        C330   1.406       .  A
C330        C331   1.402       .  A
C330        H335   1.082       .  S
C331        C332   1.408       .  A
C332        C333   1.521       .  S
C333        F337   1.384   1_545  S
C333        F338   1.382       .  S
C333        F745   1.382       .  S
C336       F1964   1.381       .  S
C336       F2371   1.385       .  S
C336       F2372   1.382       .  S
F339        C739   1.381   1_554  S
F340       C1960   1.380   1_455  S
F341       C2366   1.385   1_554  S
F342       C2366   1.382       .  S
C343        C348   1.390       .  A
C343        C750   1.399       .  A
C343        H350   1.084       .  S
C344        C345   1.415       .  A
C344        C749   1.399       .  A
C345        C352   1.523       .  S
C345        C346   1.402       .  A
C346        C347   1.402       .  A
C346        H351   1.083       .  S
C347        C754   1.404       .  A
C347        N420   1.418       .  S
C348        C349   1.513       .  S
C348        C753   1.404   1_556  A
C349        F353   1.385       .  S
C349        F354   1.382       .  S
C349        F355   1.383   1_556  S
C352        F356   1.382       .  S
C352        F357   1.382       .  S
C352        F358   1.384       .  S
C359        C360   1.410       .  A
C359        C770   1.402       .  A
C359        H772   1.083       .  S
C360        C361   1.430       .  A
C361        C368   1.521       .  S
C361        C362   1.409       .  A
C362        C363   1.397       .  A
C362        H367   1.084       .  S
C363        C770   1.408       .  A
C364        C365   1.515       .  S
C364        C765   1.398       .  A
C364        C769   1.407       .  A
C365        F369   1.385       .  S
C365        F370   1.379       .  S
C365        F371   1.382   1_556  S
H366        C765   1.082       .  S
C368        F372   1.383   1_545  S
C368       F1185   1.383   1_545  S
C368       F1186   1.386   1_545  S
F373       C1180   1.383       .  S
F374       C1180   1.386       .  S
C375        C376   1.408       .  A
C375        C380   1.395       .  A
C375        H382   1.081       .  S
C376        C377   1.416       .  A
C377        C384   1.523       .  S
C377        C378   1.391       .  A
C378        C379   1.411       .  A
C378        H383   1.081       .  S
C379        C380   1.421       .  A
C380        C381   1.525       .  S
C381        F385   1.384       .  S
C381        F386   1.376       .  S
C381        F387   1.383       .  S
C384        F388   1.377       .  S
C384        F389   1.382       .  S
C384        F390   1.385       .  S
C391        C392   1.396       .  A
C391        C396   1.390       .  A
C391        H398   1.082       .  S
C392        C393   1.419       .  A
C393        C400   1.523       .  S
C393        C394   1.390       .  A
C394        C395   1.402       .  A
C394        H399   1.080       .  S
C395        C396   1.433       .  A
C396        C397   1.532       .  S
C397        F401   1.384       .  S
C397        F402   1.375       .  S
C397        F403   1.385       .  S
C400        F404   1.383       .  S
C400        F405   1.377       .  S
C400        F406   1.383       .  S
C407        C409   1.542       .  S
C407        C411   1.539       .  S
C407        C410   1.521       .  S
C407        C782   1.511       .  S
C408        C412   1.533       .  S
C408        C414   1.528       .  S
C408        C413   1.542       .  S
C408        C798   1.501       .  S
C409        C417   1.374       .  A
C410        C421   1.364       .  A
C411        C425   1.380       .  A
C412        C415   1.379       .  A
C413        C419   1.384       .  A
C414        C422   1.373       .  A
C415        H428   1.082       .  S
N416        C417   1.350       .  A
N416        C737   1.424       .  S
C417        H418   1.082       .  S
C419        H429   1.079       .  S
C419        N420   1.352       .  A
C421        H427   1.085       .  S
C422        H424   1.079       .  S
N423        C425   1.358       .  A
N423        C769   1.428       .  S
C425        H426   1.085       .  S
C430        C432   1.553       .  S
C430        C434   1.517       .  S
C430        C433   1.520       .  S
C430        C801   1.502       .  S
C431        C435   1.550       .  S
C431        C437   1.548       .  S
C431        C436   1.532       .  S
C431        C785   1.511       .  S
C432        C440   1.380       .  A
C432        C435   1.401       .  A
C433        C444   1.371       .  A
C433        C436   1.378       .  A
C434        C448   1.371       .  A
C434        C437   1.376       .  A
C435        C438   1.385       .  A
C436        C442   1.374       .  A
C437        C445   1.390       .  A
C438        H451   1.079       .  S
C438        N439   1.359       .  A
N439        C440   1.356       .  A
N439        C686   1.439       .  S
C440        H441   1.083       .  S
C442        H452   1.081       .  S
C442        N443   1.356       .  A
N443        C444   1.354       .  A
N443        C702   1.426       .  S
C444        H450   1.086       .  S
C445        H447   1.083       .  S
C445        N446   1.356       .  A
N446        C448   1.348       .  A
N446        C721   1.428       .  S
C448        H449   1.080       .  S
O453        C461   1.265       .  A
O453      Co1285   2.007   1_545  S
O454        C462   1.276       .  A
O454       Co474   2.067       .  S
O455        C463   1.251       .  A
O455       Co475   1.960       .  S
O456        C464   1.268       .  A
O457        C463   1.268       .  A
O457      Co2098   2.033   1_455  S
O458       C2088   1.292   1_455  A
O459        C462   1.230       .  A
O459      Co1288   1.891   1_545  S
O460        C461   1.263       .  A
O460       Co475   1.964       .  S
C461        C766   1.490       .  S
C462        C734   1.469       .  S
C463        C641   1.488       .  S
C464       O2082   1.292       .  A
C464       C2944   1.532       .  S
O465        C478   1.254       .  A
O465      Co2097   1.973       .  S
O466       C2103   1.274   1_565  A
O466       Co474   2.009   1_565  S
O467        C480   1.266       .  A
O467      Co1287   2.013       .  S
O468        C481   1.304       .  A
O468       Co476   2.091       .  S
O469        C481   1.268       .  A
O469      Co1286   1.866       .  S
O470        C480   1.261       .  A
O470       Co473   1.981       .  S
O471        C478   1.237       .  A
O471       Co476   1.940       .  S
O472        C479   1.285       .  A
O472       Co475   2.079       .  S
Co473      O1265   2.005       .  S
Co473      O2089   1.974   1_455  S
Co473      O1289   2.089       .  S
Co474      O2081   2.029       .  S
Co474      O1281   1.865       .  S
Co474      O2101   2.009       .  S
Co475      O1279   2.016       .  S
Co475       O477   2.042       .  S
Co476      O1271   1.892       .  S
Co476      O2913   2.059       .  S
O477      Co1285   2.091   1_545  S
O477      Co2098   2.010   1_455  S
O477      Co2912   2.059   1_445  S
C478        C750   1.451       .  S
C479       O2090   1.274   1_445  A
C479       C2929   1.530       .  S
C480        C670   1.506       .  S
C481        C657   1.471       .  S
O482        C490   1.227       .  A
O482      Co1314   1.893   1_545  S
O483        C491   1.258       .  A
O483       Co503   1.964       .  S
O484        C492   1.266       .  A
O484       Co504   2.030       .  S
O485        C493   1.291       .  A
O485       Co505   2.099       .  S
O486        C492   1.250       .  A
O486      Co2127   1.949   1_455  S
O487       C2117   1.269       .  A
O487       Co502   1.988       .  S
O488        C491   1.270       .  A
O488      Co1317   2.021   1_545  S
O489        C490   1.279       .  A
O489       Co504   2.071       .  S
C490        C718   1.478       .  S
C491        C689   1.497       .  S
C492        C590   1.478       .  S
C493       O2111   1.269       .  A
C493       C2915   1.530       .  S
O494        C507   1.237       .  A
O494      Co2126   1.943       .  S
O495       C2132   1.283       .  A
O495       Co503   2.073       .  S
O496        C509   1.270       .  A
O496      Co1316   1.859       .  S
O497        C510   1.257       .  A
O497       Co505   1.969       .  S
O498        C510   1.271       .  A
O498      Co1315   2.021       .  S
O499        C509   1.305       .  A
O499       Co502   2.099       .  S
O500        C507   1.256       .  A
O500       Co505   1.994       .  S
O501        C508   1.273   1_565  A
O501       Co504   2.013   1_565  S
Co502      O1294   1.893       .  S
Co502      O2118   1.943       .  S
Co502      O1318   2.056       .  S
Co503      O2110   1.950       .  S
Co503      O1310   2.017       .  S
Co503      O2130   2.053       .  S
Co504      O1308   1.861       .  S
Co504       O506   2.018       .  S
Co505      O1300   2.020       .  S
Co505      O2942   2.089       .  S
O506      Co2127   2.050   1_455  S
O506      Co2941   2.087   1_445  S
O506      Co1314   2.056   1_545  S
C507        C705   1.450       .  S
C508       O2119   1.283   1_455  A
C508       C2900   1.528   1_455  S
C509        C622   1.459       .  S
C510        C606   1.500       .  S
C511        C513   1.544       .  S
C511        C515   1.523       .  S
C511        C514   1.553       .  S
C511        C558   1.501       .  S
C512        C516   1.548       .  S
C512        C518   1.519       .  S
C512        C517   1.532       .  S
C512        C577   1.502       .  S
C513        C521   1.384       .  A
C513        C516   1.403       .  A
C514        C525   1.387       .  A
C514        C517   1.389       .  A
C515        C529   1.379       .  A
C515        C518   1.367       .  A
C516        C519   1.383       .  A
C517        C523   1.372       .  A
C518        C526   1.375       .  A
C519        H532   1.083       .  S
C519        N520   1.354       .  A
N520        C521   1.353       .  A
N520        C673   1.437       .  S
C521        H522   1.081       .  S
C523        H533   1.083       .  S
C523        N524   1.354       .  A
N524        C525   1.362       .  A
N524        C638   1.436       .  S
C525        H531   1.081       .  S
C526        H528   1.081       .  S
C526        N527   1.353       .  A
N527        C529   1.353       .  A
N527        C654   1.426       .  S
C529        H530   1.084       .  S
C534        C536   1.535       .  S
C534        C538   1.527       .  S
C534        C537   1.553       .  S
C534        C574   1.500       .  S
C535        C539   1.540       .  S
C535        C541   1.527       .  S
C535        C540   1.536       .  S
C535        C561   1.503       .  S
C536        C544   1.379       .  A
C536        C539   1.387       .  A
C537        C548   1.386       .  A
C537        C540   1.395       .  A
C538        C552   1.380       .  A
C538        C541   1.376       .  A
C539        C542   1.376       .  A
C540        C546   1.372       .  A
C541        C549   1.377       .  A
C542        H555   1.082       .  S
C542        N543   1.352       .  A
N543        C544   1.353       .  A
N543        C625   1.426       .  S
C544        H545   1.080       .  S
C546        H556   1.082       .  S
C546        N547   1.352       .  A
N547        C548   1.355       .  A
N547        C593   1.430       .  S
C548        H554   1.079       .  S
C549        H551   1.080       .  S
C549        N550   1.357       .  A
N550        C552   1.355       .  A
N550        C609   1.434       .  S
C552        H553   1.084       .  S
C557        C558   1.407       .  A
C557        C562   1.393       .  A
C557        H564   1.084       .  S
C558        C559   1.426       .  A
C559        C566   1.528       .  S
C559        C560   1.390       .  A
C560        C561   1.403       .  A
C560        H565   1.084       .  S
C561        C562   1.417       .  A
C562        C563   1.523       .  S
C563        F567   1.384       .  S
C563        F568   1.379       .  S
C563        F569   1.383       .  S
C566        F570   1.385       .  S
C566        F571   1.378       .  S
C566        F572   1.381       .  S
C573        C578   1.389       .  A
C573        H580   1.081   1_556  S
C575        C576   1.391       .  A
C576        C577   1.403       .  A
C576        H581   1.081       .  S
C577        C578   1.431       .  A
C578        C579   1.531       .  S
C579        F583   1.385       .  S
C579        F584   1.375       .  S
C579        F585   1.383       .  S
C582        F586   1.376       .  S
C582        F587   1.383       .  S
C589        C590   1.409       .  A
C589        C594   1.400       .  A
C589        H596   1.084       .  S
C590        C591   1.414       .  A
C591        C598   1.515       .  S
C591        C592   1.410       .  A
C592        C593   1.404       .  A
C592        H597   1.083       .  S
C593        C594   1.405       .  A
C594        C595   1.516       .  S
C595        F599   1.385       .  S
C595        F600   1.383       .  S
C595        F601   1.382       .  S
C598        F602   1.383       .  S
C598        F603   1.382       .  S
C598        F604   1.385       .  S
C605        C606   1.411       .  A
C605        C610   1.406       .  A
C605        H612   1.082       .  S
C606        C607   1.430       .  A
C607        C614   1.521       .  S
C607        C608   1.410       .  A
C608        C609   1.397       .  A
C608        H613   1.083       .  S
C609        C610   1.408       .  A
C610        C611   1.516       .  S
C611       F1427   1.384       .  S
C611        F616   1.383       .  S
C611        F617   1.382       .  S
C614        F618   1.382       .  S
C614        F619   1.383       .  S
C614        F620   1.386       .  S
F615       C1423   1.384   1_545  S
C621        C622   1.397       .  A
C621        C626   1.396       .  A
C621        H628   1.084       .  S
C622        C623   1.413       .  A
C623        C630   1.518       .  S
C623        C624   1.406       .  A
C624        C625   1.401       .  A
C624        H629   1.083       .  S
C625        C626   1.413       .  A
C626        C627   1.517       .  S
C627       F1443   1.385       .  S
C627        F632   1.380       .  S
C627        F633   1.382       .  S
C630        F634   1.383       .  S
C630        F635   1.379       .  S
C630        F636   1.384       .  S
F631       C1439   1.385   1_545  S
C637        C638   1.396       .  A
C637        C642   1.403       .  A
C637        H644   1.082       .  S
C638        C639   1.410       .  A
C639        C646   1.512       .  S
C639        C640   1.414       .  A
C640        C641   1.407       .  A
C640        H645   1.082   1_455  S
C641        C642   1.427       .  A
C642        C643   1.523       .  S
C643        F647   1.385       .  S
C643        F648   1.382       .  S
C643        F649   1.383       .  S
C646        F650   1.383       .  S
C646        F651   1.383       .  S
C646        F652   1.384   1_455  S
C653        C654   1.399       .  A
C653        C658   1.404       .  A
C653        H660   1.083       .  S
C654        C655   1.407       .  A
C655        C662   1.515       .  S
C655        C656   1.399       .  A
C656        C657   1.404       .  A
C656        H661   1.083       .  S
C657        C658   1.422       .  A
C658       C1471   1.522       .  S
C659       C1470   1.522   1_545  S
C659        F663   1.385       .  S
C659        F664   1.383       .  S
C659        F665   1.380       .  S
C662        F666   1.383       .  S
C662        F667   1.382       .  S
C662        F668   1.385       .  S
C669        C670   1.415       .  A
C669        C674   1.411       .  A
C669        H676   1.083       .  S
C670        C671   1.431       .  A
C671       C1490   1.523       .  S
C671        C672   1.410       .  A
C672        C673   1.397       .  A
C672        H677   1.083       .  S
C673        C674   1.407       .  A
C674        C675   1.516       .  S
C675        F679   1.384       .  S
C675        F680   1.383       .  S
C675        F681   1.384       .  S
C678       C1483   1.523   1_545  S
C678        F682   1.382       .  S
C678        F683   1.384       .  S
C678        F684   1.385       .  S
C685        C686   1.399       .  A
C685        C690   1.410       .  A
C685        H692   1.083       .  S
C686        C687   1.410       .  A
C687        C694   1.516       .  S
C687        C688   1.410       .  A
C688        C689   1.411       .  A
C688        H693   1.083       .  S
C689        C690   1.425       .  A
C690        C691   1.519       .  S
C691        F695   1.383       .  S
C691        F696   1.384       .  S
C691       F2321   1.384       .  S
C694        F698   1.383       .  S
C694        F699   1.383       .  S
C694        F700   1.385   1_545  S
F697       C2315   1.384       .  S
C701        C702   1.401       .  A
C701        C706   1.396       .  A
C701        H708   1.083       .  S
C702        C703   1.414       .  A
C703        C710   1.516       .  S
C703        C704   1.402       .  A
C704        C705   1.399       .  A
C704        H709   1.083       .  S
C705        C706   1.408       .  A
C706        C707   1.519       .  S
C707        F711   1.384       .  S
C707        F712   1.382       .  S
C707        F713   1.384       .  S
C710        F714   1.381       .  S
C710        F715   1.383       .  S
C710        F716   1.385       .  S
C717        C718   1.396       .  A
C717        C722   1.400       .  A
C717        H724   1.082       .  S
C718        C719   1.437       .  A
C719        C726   1.530       .  S
C719        C720   1.404       .  A
C720        C721   1.393       .  A
C720        H725   1.082       .  S
C721        C722   1.410       .  A
C722        C723   1.511       .  S
C723        F727   1.385       .  S
C723        F728   1.380       .  S
C723        F729   1.383       .  S
C726        F730   1.377   1_545  S
C726       F1543   1.380   1_545  S
C726        F732   1.387   1_545  S
F731       C1538   1.380       .  S
C733        C734   1.410       .  A
C733        C738   1.400       .  A
C733        H740   1.084       .  S
C734        C735   1.406       .  A
C735        C742   1.512       .  S
C735        C736   1.405       .  A
C736        C737   1.402       .  A
C736        H741   1.082       .  S
C737        C738   1.408       .  A
C738        C739   1.521       .  S
C739        F743   1.384   1_545  S
C739        F744   1.382       .  S
C742       F2370   1.381       .  S
C742       F1965   1.385   1_556  S
C742       F1966   1.382   1_556  S
F746       C2366   1.381       .  S
F747       C1960   1.386       .  S
F748       C1960   1.381       .  S
C749        C754   1.390       .  A
C749        H756   1.084       .  S
C750        C751   1.415       .  A
C751        C758   1.523       .  S
C751        C752   1.402   1_556  A
C752        C753   1.402       .  A
C752        H757   1.083       .  S
C754        C755   1.513       .  S
C755        F759   1.385       .  S
C755        F760   1.382       .  S
C755        F761   1.383       .  S
C758        F762   1.382       .  S
C758        F763   1.382   1_556  S
C758        F764   1.384   1_556  S
C765        C766   1.408       .  A
C766        C767   1.429       .  A
C767        C774   1.521       .  S
C767        C768   1.408       .  A
C768        C769   1.397       .  A
C768        H773   1.084       .  S
C770        C771   1.515       .  S
C771        F775   1.385       .  S
C771        F776   1.379       .  S
C771        F777   1.383       .  S
C774        F778   1.383   1_545  S
C774       F1591   1.383   1_546  S
C774       F1592   1.386   1_546  S
F779       C1586   1.384   1_554  S
F780       C1586   1.386   1_554  S
C781        C782   1.408       .  A
C781        C786   1.395       .  A
C781        H788   1.081       .  S
C782        C783   1.417       .  A
C783        C790   1.523       .  S
C783        C784   1.391       .  A
C784        C785   1.410       .  A
C784        H789   1.081       .  S
C785        C786   1.421       .  A
C786        C787   1.525       .  S
C787        F791   1.384       .  S
C787        F792   1.376       .  S
C787        F793   1.383       .  S
C790        F794   1.377       .  S
C790        F795   1.383       .  S
C790        F796   1.385       .  S
C797        C798   1.396       .  A
C797        C802   1.390       .  A
C797        H804   1.082       .  S
C798        C799   1.418       .  A
C799        C806   1.523       .  S
C799        C800   1.390       .  A
C800        C801   1.402       .  A
C800        H805   1.080       .  S
C801        C802   1.434       .  A
C802        C803   1.532       .  S
C803        F807   1.384       .  S
C803        F808   1.375       .  S
C803        F809   1.384       .  S
C806        F810   1.382       .  S
C806        F811   1.377       .  S
C806        F812   1.383       .  S
C813        C815   1.542       .  S
C813        C817   1.538       .  S
C813        C816   1.521       .  S
C813       C1188   1.511       .  S
C814        C818   1.534       .  S
C814        C820   1.526       .  S
C814        C819   1.542       .  S
C814       C1204   1.502       .  S
C815        C823   1.374       .  A
C815       C1224   1.389       .  A
C816        C827   1.364       .  A
C816       C1225   1.387       .  A
C817        C831   1.380       .  A
C817       C1226   1.388       .  A
C818       C1221   1.389   1_554  A
C818        C821   1.379       .  A
C819       C1222   1.386   1_554  A
C819        C825   1.383       .  A
C820       C1223   1.389   1_554  A
C820        C828   1.371       .  A
C821        H834   1.082       .  S
C821       N1228   1.352   1_554  A
N822       C1227   1.352       .  A
N822        C823   1.349       .  A
N822       C1143   1.423       .  S
C823        H824   1.082       .  S
C825        H835   1.079       .  S
C825        N826   1.352       .  A
N826       C1233   1.347   1_554  A
N826       C1565   1.417       .  S
C827        H833   1.085       .  S
C827       N1232   1.347       .  A
C828        H830   1.080       .  S
C828       N1235   1.351   1_554  A
N829       C1234   1.351       .  A
N829        C831   1.358       .  A
N829       C1175   1.428       .  S
C831        H832   1.085       .  S
C836        C838   1.553       .  S
C836        C840   1.517       .  S
C836        C839   1.522       .  S
C836       C1207   1.502       .  S
C837        C841   1.550       .  S
C837        C843   1.547       .  S
C837        C842   1.531       .  S
C837       C1191   1.511       .  S
C838        C846   1.380       .  A
C838        C841   1.401       .  A
C839        C850   1.372       .  A
C839        C842   1.379       .  A
C840        C854   1.371       .  A
C840        C843   1.376       .  A
C841        C844   1.384       .  A
C842        C848   1.374       .  A
C843        C851   1.389       .  A
C844        H857   1.079       .  S
C844        N845   1.359       .  A
N845        C846   1.355       .  A
N845       C1092   1.438       .  S
C846        H847   1.083       .  S
C848        H858   1.081       .  S
C848        N849   1.355       .  A
N849        C850   1.354       .  A
N849       C1108   1.425       .  S
C850        H856   1.086       .  S
C851        H853   1.083       .  S
C851        N852   1.356       .  A
N852        C854   1.348       .  A
N852       C1127   1.428       .  S
C854        H855   1.080       .  S
O859        C867   1.265       .  A
O860        C868   1.275       .  A
O860       Co880   2.067       .  S
O861        C869   1.252       .  A
O861       Co881   1.961       .  S
O862        C870   1.268       .  A
O862      Co1288   1.984   1_544  S
O863        C869   1.267       .  A
O863      Co2504   2.030   1_455  S
O864       C2494   1.292   1_465  A
O864      Co1285   2.106   1_554  S
O865        C868   1.230       .  A
O866        C867   1.263       .  A
O866       Co881   1.962       .  S
C867       C1172   1.489       .  S
C868       C1140   1.468       .  S
C869       C1047   1.486       .  S
C870       O2488   1.292   1_545  A
C870       C1726   1.534       .  S
O871        C884   1.255       .  A
O871      Co2503   1.975       .  S
O872       C2509   1.274       .  A
O872       Co880   2.010       .  S
O873        C886   1.265   1_545  A
O874        C887   1.304       .  A
O874       Co882   2.091       .  S
O875        C887   1.268   1_545  A
O876        C886   1.262       .  A
O876       Co879   1.982       .  S
O877        C884   1.237       .  A
O877       Co882   1.943       .  S
O878        C885   1.285       .  A
O878       Co881   2.077       .  S
Co879      O1270   2.112       .  S
Co879      O2495   1.968   1_455  S
Co880      O2487   2.029       .  S
Co880      O2507   2.008       .  S
Co881       O883   2.042       .  S
Co882      O1268   1.984   1_565  S
Co882      O1695   2.060   1_565  S
O883      Co2504   2.010   1_455  S
O883      Co1694   2.059   1_455  S
C884       C1156   1.452       .  S
C885       O2496   1.274   1_455  A
C885       C1711   1.530       .  S
C886       C1076   1.506       .  S
C887       C1063   1.469       .  S
O888        C896   1.227       .  A
O889        C897   1.257       .  A
O889       Co909   1.961       .  S
O890        C898   1.265       .  A
O890       Co910   2.028       .  S
O891        C899   1.291   1_565  A
O891       Co911   2.101       .  S
O892        C898   1.251       .  A
O892      Co2533   1.950   1_455  S
O893       C2523   1.265       .  A
O893       Co908   1.975   1_545  S
O894        C897   1.270       .  A
O895        C896   1.280       .  A
O895       Co910   2.073       .  S
C896       C1124   1.478       .  S
C897       C1095   1.495       .  S
C898        C996   1.478       .  S
C899       O2517   1.269       .  A
C899       C1697   1.531       .  S
O900        C913   1.237       .  A
O900      Co2532   1.943       .  S
O901       C2538   1.283       .  A
O901       Co909   2.073       .  S
O902        C915   1.270   1_545  A
O903        C916   1.257       .  A
O903       Co911   1.970       .  S
O904        C916   1.271   1_545  A
O905        C915   1.303       .  A
O905       Co908   2.092       .  S
O906        C913   1.257       .  A
O906       Co911   1.995       .  S
O907        C914   1.274       .  A
O907       Co910   2.016       .  S
Co908      O2524   1.944       .  S
Co909      O2516   1.948       .  S
Co909      O2536   2.051       .  S
Co910       O912   2.017       .  S
Co911      O1724   2.089   1_565  S
O912      Co2533   2.051   1_455  S
O912      Co1723   2.088   1_455  S
C913       C1111   1.452       .  S
C914       O2525   1.283   1_455  A
C914       C1682   1.533   1_455  S
C915       C1028   1.458       .  S
C916       C1012   1.497       .  S
C917        C919   1.543       .  S
C917        C921   1.522       .  S
C917        C920   1.552       .  S
C917        C964   1.500       .  S
C918        C922   1.550       .  S
C918        C924   1.520       .  S
C918        C923   1.532       .  S
C918        C983   1.502       .  S
C919        C927   1.384       .  A
C919        C922   1.402       .  A
C920        C931   1.387       .  A
C920        C923   1.390       .  A
C921        C935   1.378       .  A
C921        C924   1.366       .  A
C922        C925   1.384       .  A
C923        C929   1.372       .  A
C924        C932   1.375       .  A
C925        H938   1.083       .  S
C925        N926   1.354       .  A
N926        C927   1.353       .  A
N926       C1079   1.437       .  S
C927        H928   1.081       .  S
C929        H939   1.083       .  S
C929        N930   1.354       .  A
N930        C931   1.362       .  A
N930       C1044   1.435       .  S
C931        H937   1.081       .  S
C932        H934   1.081       .  S
C932        N933   1.353       .  A
N933        C935   1.352       .  A
N933       C1060   1.425       .  S
C935        H936   1.084       .  S
C940        C942   1.534       .  S
C940        C944   1.526       .  S
C940        C943   1.552       .  S
C940        C980   1.501       .  S
C941        C945   1.541       .  S
C941        C947   1.527       .  S
C941        C946   1.536       .  S
C941        C967   1.503       .  S
C942        C950   1.378       .  A
C942        C945   1.387       .  A
C943        C954   1.386       .  A
C943        C946   1.395       .  A
C944        C958   1.379       .  A
C944        C947   1.376       .  A
C945        C948   1.377       .  A
C946        C952   1.373       .  A
C947        C955   1.377       .  A
C948        H961   1.082       .  S
C948        N949   1.352       .  A
N949        C950   1.352       .  A
N949       C1031   1.426       .  S
C950        H951   1.080       .  S
C952        H962   1.082       .  S
C952        N953   1.352       .  A
N953        C954   1.354       .  A
N953        C999   1.430       .  S
C954        H960   1.079       .  S
C955        H957   1.080       .  S
C955        N956   1.357       .  A
N956        C958   1.355       .  A
N956       C1015   1.433       .  S
C958        H959   1.084       .  S
C963        C964   1.407       .  A
C963        C968   1.392       .  A
C963        H970   1.084       .  S
C964        C965   1.427       .  A
C965        C972   1.529       .  S
C965        C966   1.391       .  A
C966        C967   1.402       .  A
C966        H971   1.084       .  S
C967        C968   1.416       .  A
C968        C969   1.523       .  S
C969        F973   1.384       .  S
C969        F974   1.379       .  S
C969        F975   1.383       .  S
C972        F976   1.385       .  S
C972        F977   1.378       .  S
C972        F978   1.381       .  S
C979       C1386   1.396       .  A
C979        C984   1.389       .  A
C979        H986   1.081       .  S
C980       C1385   1.396   1_554  A
C980       C1387   1.423   1_554  A
C981       C1394   1.527       .  S
C981       C1386   1.423       .  A
C981        C982   1.391       .  A
C982        C983   1.404       .  A
C982        H987   1.081       .  S
C983        C984   1.431       .  A
C984        C985   1.531       .  S
C985        F989   1.385       .  S
C985        F990   1.375       .  S
C985        F991   1.384       .  S
C988       C1387   1.527   1_554  S
C988        F992   1.376       .  S
C988        F993   1.383       .  S
C988       F1400   1.384   1_554  S
F994       C1394   1.383       .  S
C995        C996   1.409       .  A
C995       C1000   1.400       .  A
C995       H1002   1.084       .  S
C996        C997   1.414       .  A
C997       C1004   1.515       .  S
C997        C998   1.410       .  A
C998        C999   1.404       .  A
C998       H1003   1.083       .  S
C999       C1000   1.405       .  A
C1000      C1001   1.515       .  S
C1001      F1005   1.385       .  S
C1001      F1006   1.383       .  S
C1001      F1007   1.382       .  S
C1004      F1008   1.382       .  S
C1004      F1009   1.381       .  S
C1004      F1010   1.385       .  S
C1011      C1012   1.411       .  A
C1011      C1016   1.405       .  A
C1011      H1018   1.082   1_565  S
C1012      C1013   1.429       .  A
C1013      C1020   1.521       .  S
C1013      C1014   1.409       .  A
C1014      C1015   1.397       .  A
C1014      H1019   1.083       .  S
C1015      C1016   1.408       .  A
C1016      C1017   1.516       .  S
C1017      F1022   1.383       .  S
C1017      F1023   1.382       .  S
C1020      F1024   1.382       .  S
C1020      F1025   1.384       .  S
C1020      F1026   1.386       .  S
C1027      C1028   1.396       .  A
C1027      C1032   1.396       .  A
C1027      H1034   1.084   1_565  S
C1028      C1029   1.413       .  A
C1029      C1036   1.519       .  S
C1029      C1030   1.405       .  A
C1030      C1031   1.401       .  A
C1030      H1035   1.083       .  S
C1031      C1032   1.414       .  A
C1032      C1033   1.517       .  S
C1033      F1038   1.380       .  S
C1033      F1039   1.382       .  S
C1036      F1040   1.383       .  S
C1036      F1041   1.380       .  S
C1036      F1042   1.384       .  S
C1043      C1044   1.396       .  A
C1043      C1048   1.403       .  A
C1043      H1050   1.082       .  S
C1044      C1045   1.410       .  A
C1045      C1052   1.512       .  S
C1045      C1046   1.413       .  A
C1046      C1047   1.407       .  A
C1046      H1051   1.082   1_455  S
C1047      C1048   1.426       .  A
C1048      C1049   1.523       .  S
C1049      F1053   1.385       .  S
C1049      F1054   1.382       .  S
C1049      F1055   1.383       .  S
C1052      F1056   1.383       .  S
C1052      F1057   1.383       .  S
C1052      F1058   1.383   1_455  S
C1059      C1060   1.398       .  A
C1059      C1064   1.403       .  A
C1059      H1066   1.083       .  S
C1060      C1061   1.407       .  A
C1061      C1068   1.514       .  S
C1061      C1062   1.399       .  A
C1062      C1063   1.404       .  A
C1062      H1067   1.083       .  S
C1063      C1064   1.421       .  A
C1065      F1069   1.385       .  S
C1065      F1070   1.383       .  S
C1065      F1071   1.380       .  S
C1068      F1072   1.383       .  S
C1068      F1073   1.382       .  S
C1068      F1074   1.385       .  S
C1075      C1076   1.414       .  A
C1075      C1080   1.411       .  A
C1075      H1082   1.083       .  S
C1076      C1077   1.432       .  A
C1077      C1078   1.411       .  A
C1078      C1079   1.397       .  A
C1078      H1083   1.083       .  S
C1079      C1080   1.407       .  A
C1080      C1081   1.516       .  S
C1081      F1085   1.384       .  S
C1081      F1086   1.383       .  S
C1081      F1087   1.384       .  S
C1084      F1088   1.382       .  S
C1084      F1089   1.384       .  S
C1084      F1090   1.385       .  S
C1091      C1092   1.399       .  A
C1091      C1096   1.410       .  A
C1091      H1098   1.083       .  S
C1092      C1093   1.410       .  A
C1093      C1100   1.516       .  S
C1093      C1094   1.409       .  A
C1094      C1095   1.411       .  A
C1094      H1099   1.083       .  S
C1095      C1096   1.425       .  A
C1096      C1097   1.520       .  S
C1097      F1101   1.383       .  S
C1097      F1102   1.384       .  S
C1097      F2727   1.384       .  S
C1100      F1104   1.383       .  S
C1100      F1105   1.383       .  S
C1100      F1106   1.385       .  S
F1103      C2721   1.384       .  S
C1107      C1108   1.400       .  A
C1107      C1112   1.396       .  A
C1107      H1114   1.083       .  S
C1108      C1109   1.413       .  A
C1109      C1116   1.516       .  S
C1109      C1110   1.402       .  A
C1110      C1111   1.400       .  A
C1110      H1115   1.083       .  S
C1111      C1112   1.409       .  A
C1112      C1113   1.519       .  S
C1113      F1117   1.384       .  S
C1113      F1118   1.382       .  S
C1113      F1119   1.384       .  S
C1116      F1120   1.381       .  S
C1116      F1121   1.383       .  S
C1116      F1122   1.385       .  S
C1123      C1124   1.396       .  A
C1123      C1128   1.400       .  A
C1123      H1130   1.082       .  S
C1124      C1125   1.437       .  A
C1125      C1132   1.529       .  S
C1125      C1126   1.404       .  A
C1126      C1127   1.393       .  A
C1126      H1131   1.082       .  S
C1127      C1128   1.410       .  A
C1128      C1129   1.511       .  S
C1129      F1133   1.385       .  S
C1129      F1134   1.380       .  S
C1129      F1135   1.383       .  S
C1132      F1136   1.377       .  S
C1132      F1138   1.387       .  S
C1139      C1140   1.410       .  A
C1139      C1144   1.400       .  A
C1139      H1146   1.084       .  S
C1140      C1141   1.407       .  A
C1141      C1148   1.512       .  S
C1141      C1142   1.405       .  A
C1142      C1143   1.402       .  A
C1142      H1147   1.082       .  S
C1143      C1144   1.408       .  A
C1144      C1145   1.521       .  S
C1145      F1149   1.384       .  S
C1145      F1150   1.382       .  S
C1145      F1557   1.381       .  S
C1148      F2776   1.381       .  S
C1148      F3183   1.385       .  S
C1148      F3184   1.382       .  S
F1151      C1551   1.382   1_554  S
F1152      C2772   1.381       .  S
F1153      C3178   1.385   1_554  S
F1154      C3178   1.382   1_455  S
C1155      C1562   1.399       .  A
C1155      C1160   1.390       .  A
C1155      H1162   1.084       .  S
C1156      C1561   1.399       .  A
C1156      C1157   1.415       .  A
C1157      C1164   1.523       .  S
C1157      C1158   1.403       .  A
C1158      C1159   1.402       .  A
C1158      H1163   1.083       .  S
C1159      C1566   1.404       .  A
C1159      N1232   1.418       .  S
C1160      C1161   1.513       .  S
C1160      C1565   1.404   1_556  A
C1161      F1165   1.385       .  S
C1161      F1166   1.382       .  S
C1161      F1167   1.383   1_556  S
C1164      F1168   1.382       .  S
C1164      F1169   1.382       .  S
C1164      F1170   1.384       .  S
C1171      C1172   1.408       .  A
C1171      C1582   1.398       .  A
C1171      H1584   1.082       .  S
C1172      C1173   1.429       .  A
C1173      C1180   1.522       .  S
C1173      C1174   1.408       .  A
C1174      C1175   1.397       .  A
C1174      H1179   1.084       .  S
C1175      C1582   1.407       .  A
C1176      C1177   1.515       .  S
C1176      C1577   1.398       .  A
C1176      C1581   1.407       .  A
C1177      F1181   1.385       .  S
C1177      F1182   1.380       .  S
C1177      F1183   1.382   1_556  S
H1178      C1577   1.082       .  S
C1180      F1184   1.383       .  S
C1187      C1188   1.408       .  A
C1187      C1192   1.395       .  A
C1187      H1194   1.081       .  S
C1188      C1189   1.417       .  A
C1189      C1196   1.524       .  S
C1189      C1190   1.391       .  A
C1190      C1191   1.411       .  A
C1190      H1195   1.081       .  S
C1191      C1192   1.421       .  A
C1192      C1193   1.525       .  S
C1193      F1197   1.384       .  S
C1193      F1198   1.376       .  S
C1193      F1199   1.383       .  S
C1196      F1200   1.376       .  S
C1196      F1201   1.383       .  S
C1196      F1202   1.385       .  S
C1203      C1204   1.396       .  A
C1203      C1208   1.390       .  A
C1203      H1210   1.082       .  S
C1204      C1205   1.418       .  A
C1205      C1212   1.523       .  S
C1205      C1206   1.390       .  A
C1206      C1207   1.403       .  A
C1206      H1211   1.080       .  S
C1207      C1208   1.433       .  A
C1208      C1209   1.532       .  S
C1209      F1213   1.384       .  S
C1209      F1214   1.375       .  S
C1209      F1215   1.385       .  S
C1212      F1216   1.382       .  S
C1212      F1217   1.377       .  S
C1212      F1218   1.383       .  S
C1219      C1221   1.541       .  S
C1219      C1223   1.539       .  S
C1219      C1222   1.519       .  S
C1219      C1594   1.511       .  S
C1220      C1224   1.532       .  S
C1220      C1226   1.526       .  S
C1220      C1225   1.543       .  S
C1220      C1610   1.502       .  S
C1221      C1229   1.374       .  A
C1222      C1233   1.363       .  A
C1223      C1237   1.380       .  A
C1224      C1227   1.378       .  A
C1225      C1231   1.384       .  A
C1226      C1234   1.371       .  A
C1227      H1240   1.082       .  S
N1228      C1229   1.349       .  A
N1228      C1549   1.424       .  S
C1229      H1230   1.082       .  S
C1231      H1241   1.079       .  S
C1231      N1232   1.352       .  A
C1233      H1239   1.085       .  S
C1234      H1236   1.080       .  S
N1235      C1237   1.358       .  A
N1235      C1581   1.428       .  S
C1237      H1238   1.085       .  S
C1242      C1244   1.553       .  S
C1242      C1246   1.517       .  S
C1242      C1245   1.521       .  S
C1242      C1613   1.501       .  S
C1243      C1247   1.550       .  S
C1243      C1249   1.548       .  S
C1243      C1248   1.531       .  S
C1243      C1597   1.511       .  S
C1244      C1252   1.380       .  A
C1244      C1247   1.402       .  A
C1245      C1256   1.372       .  A
C1245      C1248   1.378       .  A
C1246      C1260   1.371       .  A
C1246      C1249   1.375       .  A
C1247      C1250   1.385       .  A
C1248      C1254   1.374       .  A
C1249      C1257   1.390       .  A
C1250      H1263   1.079       .  S
C1250      N1251   1.359       .  A
N1251      C1252   1.356       .  A
N1251      C1498   1.438       .  S
C1252      H1253   1.083       .  S
C1254      H1264   1.081       .  S
C1254      N1255   1.356       .  A
N1255      C1256   1.354       .  A
N1255      C1514   1.425       .  S
C1256      H1262   1.086       .  S
C1257      H1259   1.083       .  S
C1257      N1258   1.356       .  A
N1258      C1260   1.348       .  A
N1258      C1533   1.429       .  S
C1260      H1261   1.080       .  S
O1265      C1273   1.265       .  A
O1266      C1274   1.275       .  A
O1266     Co1286   2.067       .  S
O1267      C1275   1.251       .  A
O1267     Co1287   1.959       .  S
O1268      C1276   1.268       .  A
O1269      C1275   1.267       .  A
O1269     Co2910   2.030   1_455  S
O1270      C2900   1.292   1_465  A
O1271      C1274   1.230       .  A
O1272      C1273   1.263       .  A
O1272     Co1287   1.964       .  S
C1273      C1578   1.490       .  S
C1274      C1546   1.469       .  S
C1275      C1453   1.485       .  S
C1276      O2894   1.292   1_545  A
C1276      C2132   1.533       .  S
O1277      C1290   1.254       .  A
O1277     Co2909   1.974       .  S
O1278      C2915   1.274       .  A
O1278     Co1286   2.009       .  S
O1279      C1292   1.266   1_545  A
O1280      C1293   1.304       .  A
O1280     Co1288   2.091       .  S
O1281      C1293   1.268   1_545  A
O1282      C1292   1.261       .  A
O1282     Co1285   1.980       .  S
O1283      C1290   1.237       .  A
O1283     Co1288   1.940       .  S
O1284      C1291   1.285       .  A
O1284     Co1287   2.079       .  S
Co1285     O2901   1.975   1_455  S
Co1286     O2893   2.029       .  S
Co1286     O2913   2.008       .  S
Co1287     O1289   2.042       .  S
Co1288     O2101   2.058   1_565  S
O1289     Co2910   2.008   1_455  S
O1289     Co2100   2.059   1_455  S
C1290      C1562   1.449       .  S
C1291      O2902   1.274   1_455  A
C1291      C2117   1.531       .  S
C1292      C1482   1.507       .  S
C1293      C1469   1.469       .  S
O1294      C1302   1.227       .  A
O1295      C1303   1.257       .  A
O1295     Co1315   1.962       .  S
O1296      C1304   1.265       .  A
O1296     Co1316   2.028       .  S
O1297      C1305   1.291   1_565  A
O1297     Co1317   2.100       .  S
O1298      C1304   1.251       .  A
O1298     Co2939   1.950   1_455  S
O1299      C2929   1.269       .  A
O1299     Co1314   1.987   1_545  S
O1300      C1303   1.270       .  A
O1301      C1302   1.280       .  A
O1301     Co1316   2.076       .  S
C1302      C1530   1.480       .  S
C1303      C1501   1.494       .  S
C1304      C1402   1.478       .  S
C1305      O2923   1.269       .  A
C1305      C2103   1.531       .  S
O1306      C1319   1.237       .  A
O1306     Co2938   1.942       .  S
O1307      C2944   1.283       .  A
O1307     Co1315   2.073       .  S
O1308      C1321   1.270   1_545  A
O1309      C1322   1.256       .  A
O1309     Co1317   1.969       .  S
O1310      C1322   1.271   1_545  A
O1311      C1321   1.304       .  A
O1311     Co1314   2.098       .  S
O1312      C1319   1.256       .  A
O1312     Co1317   1.993       .  S
O1313      C1320   1.275       .  A
O1313     Co1316   2.019       .  S
Co1314     O2930   1.942       .  S
Co1315     O2922   1.949       .  S
Co1315     O2942   2.051       .  S
Co1316     O1318   2.019       .  S
Co1317     O2130   2.088   1_565  S
O1318     Co2939   2.053   1_455  S
O1318     Co2129   2.091   1_455  S
C1319      C1517   1.450       .  S
C1320      O2931   1.283   1_455  A
C1320      C2088   1.534   1_455  S
C1321      C1434   1.460       .  S
C1322      C1418   1.497       .  S
C1323      C1325   1.544       .  S
C1323      C1327   1.522       .  S
C1323      C1326   1.551       .  S
C1323      C1370   1.500       .  S
C1324      C1328   1.549       .  S
C1324      C1330   1.519       .  S
C1324      C1329   1.532       .  S
C1324      C1389   1.502       .  S
C1325      C1333   1.384       .  A
C1325      C1328   1.403       .  A
C1326      C1337   1.386       .  A
C1326      C1329   1.390       .  A
C1327      C1341   1.378       .  A
C1327      C1330   1.366       .  A
C1328      C1331   1.384       .  A
C1329      C1335   1.372       .  A
C1330      C1338   1.375       .  A
C1331      H1344   1.083       .  S
C1331      N1332   1.354       .  A
N1332      C1333   1.353       .  A
N1332      C1485   1.438       .  S
C1333      H1334   1.081       .  S
C1335      H1345   1.082       .  S
C1335      N1336   1.354       .  A
N1336      C1337   1.361       .  A
N1336      C1450   1.435       .  S
C1337      H1343   1.081       .  S
C1338      H1340   1.081       .  S
C1338      N1339   1.353       .  A
N1339      C1341   1.352       .  A
N1339      C1466   1.424       .  S
C1341      H1342   1.084       .  S
C1346      C1348   1.534       .  S
C1346      C1350   1.526       .  S
C1346      C1349   1.553       .  S
C1346      C1386   1.500       .  S
C1347      C1351   1.541       .  S
C1347      C1353   1.527       .  S
C1347      C1352   1.537       .  S
C1347      C1373   1.503       .  S
C1348      C1356   1.378       .  A
C1348      C1351   1.387       .  A
C1349      C1360   1.386       .  A
C1349      C1352   1.395       .  A
C1350      C1364   1.379       .  A
C1350      C1353   1.376       .  A
C1351      C1354   1.377       .  A
C1352      C1358   1.374       .  A
C1353      C1361   1.377       .  A
C1354      H1367   1.082       .  S
C1354      N1355   1.352       .  A
N1355      C1356   1.352       .  A
N1355      C1437   1.427       .  S
C1356      H1357   1.080       .  S
C1358      H1368   1.081       .  S
C1358      N1359   1.352       .  A
N1359      C1360   1.354       .  A
N1359      C1405   1.430       .  S
C1360      H1366   1.080       .  S
C1361      H1363   1.080       .  S
C1361      N1362   1.357       .  A
N1362      C1364   1.355       .  A
N1362      C1421   1.433       .  S
C1364      H1365   1.084       .  S
C1369      C1370   1.408       .  A
C1369      C1374   1.393       .  A
C1369      H1376   1.084       .  S
C1370      C1371   1.426       .  A
C1371      C1378   1.529       .  S
C1371      C1372   1.391       .  A
C1372      C1373   1.403       .  A
C1372      H1377   1.084       .  S
C1373      C1374   1.416       .  A
C1374      C1375   1.523       .  S
C1375      F1379   1.384       .  S
C1375      F1380   1.379       .  S
C1375      F1381   1.383       .  S
C1378      F1382   1.385       .  S
C1378      F1383   1.378       .  S
C1378      F1384   1.381       .  S
C1385      C1390   1.389       .  A
C1385      H1392   1.081   1_556  S
C1387      C1388   1.391       .  A
C1388      C1389   1.404       .  A
C1388      H1393   1.081       .  S
C1389      C1390   1.431       .  A
C1390      C1391   1.531       .  S
C1391      F1395   1.385       .  S
C1391      F1396   1.375       .  S
C1391      F1397   1.384       .  S
C1394      F1398   1.376       .  S
C1394      F1399   1.383       .  S
C1401      C1402   1.409       .  A
C1401      C1406   1.400       .  A
C1401      H1408   1.084       .  S
C1402      C1403   1.414       .  A
C1403      C1410   1.515       .  S
C1403      C1404   1.410       .  A
C1404      C1405   1.404       .  A
C1404      H1409   1.083       .  S
C1405      C1406   1.405       .  A
C1406      C1407   1.515       .  S
C1407      F1411   1.385       .  S
C1407      F1412   1.383       .  S
C1407      F1413   1.382       .  S
C1410      F1414   1.383       .  S
C1410      F1415   1.381       .  S
C1410      F1416   1.385       .  S
C1417      C1418   1.411       .  A
C1417      C1422   1.405       .  A
C1417      H1424   1.082   1_565  S
C1418      C1419   1.429       .  A
C1419      C1426   1.521       .  S
C1419      C1420   1.409       .  A
C1420      C1421   1.397       .  A
C1420      H1425   1.083       .  S
C1421      C1422   1.408       .  A
C1422      C1423   1.516       .  S
C1423      F1428   1.383       .  S
C1423      F1429   1.382       .  S
C1426      F1430   1.382       .  S
C1426      F1431   1.384       .  S
C1426      F1432   1.386       .  S
C1433      C1434   1.397       .  A
C1433      C1438   1.396       .  A
C1433      H1440   1.084   1_565  S
C1434      C1435   1.414       .  A
C1435      C1442   1.518       .  S
C1435      C1436   1.406       .  A
C1436      C1437   1.401       .  A
C1436      H1441   1.083       .  S
C1437      C1438   1.414       .  A
C1438      C1439   1.517       .  S
C1439      F1444   1.380       .  S
C1439      F1445   1.382       .  S
C1442      F1446   1.383       .  S
C1442      F1447   1.379       .  S
C1442      F1448   1.384       .  S
C1449      C1450   1.396       .  A
C1449      C1454   1.403       .  A
C1449      H1456   1.082       .  S
C1450      C1451   1.410       .  A
C1451      C1458   1.512       .  S
C1451      C1452   1.413       .  A
C1452      C1453   1.407       .  A
C1452      H1457   1.082   1_455  S
C1453      C1454   1.426       .  A
C1454      C1455   1.523       .  S
C1455      F1459   1.385       .  S
C1455      F1460   1.382       .  S
C1455      F1461   1.383       .  S
C1458      F1462   1.383       .  S
C1458      F1463   1.383       .  S
C1458      F1464   1.384   1_455  S
C1465      C1466   1.398       .  A
C1465      C1470   1.402       .  A
C1465      H1472   1.083       .  S
C1466      C1467   1.407       .  A
C1467      C1474   1.514       .  S
C1467      C1468   1.399       .  A
C1468      C1469   1.403       .  A
C1468      H1473   1.083       .  S
C1469      C1470   1.421       .  A
C1471      F1475   1.384       .  S
C1471      F1476   1.383       .  S
C1471      F1477   1.381       .  S
C1474      F1478   1.383       .  S
C1474      F1479   1.382       .  S
C1474      F1480   1.385       .  S
C1481      C1482   1.416       .  A
C1481      C1486   1.412       .  A
C1481      H1488   1.083       .  S
C1482      C1483   1.431       .  A
C1483      C1484   1.410       .  A
C1484      C1485   1.397       .  A
C1484      H1489   1.083       .  S
C1485      C1486   1.407       .  A
C1486      C1487   1.516       .  S
C1487      F1491   1.384       .  S
C1487      F1492   1.383       .  S
C1487      F1493   1.384       .  S
C1490      F1494   1.382       .  S
C1490      F1495   1.384       .  S
C1490      F1496   1.385       .  S
C1497      C1498   1.400       .  A
C1497      C1502   1.410       .  A
C1497      H1504   1.083       .  S
C1498      C1499   1.410       .  A
C1499      C1506   1.516       .  S
C1499      C1500   1.409       .  A
C1500      C1501   1.410       .  A
C1500      H1505   1.083       .  S
C1501      C1502   1.424       .  A
C1502      C1503   1.519       .  S
C1503      F1507   1.382       .  S
C1503      F1508   1.384       .  S
C1503      F3133   1.384       .  S
C1506      F1510   1.383       .  S
C1506      F1511   1.383       .  S
C1506      F1512   1.385       .  S
F1509      C3127   1.384   1_455  S
C1513      C1514   1.401       .  A
C1513      C1518   1.396       .  A
C1513      H1520   1.083       .  S
C1514      C1515   1.413       .  A
C1515      C1522   1.516       .  S
C1515      C1516   1.401       .  A
C1516      C1517   1.399       .  A
C1516      H1521   1.083       .  S
C1517      C1518   1.408       .  A
C1518      C1519   1.520       .  S
C1519      F1523   1.384       .  S
C1519      F1524   1.382       .  S
C1519      F1525   1.384       .  S
C1522      F1526   1.381       .  S
C1522      F1527   1.383       .  S
C1522      F1528   1.386       .  S
C1529      C1530   1.397       .  A
C1529      C1534   1.401       .  A
C1529      H1536   1.082       .  S
C1530      C1531   1.437       .  A
C1531      C1538   1.529       .  S
C1531      C1532   1.405       .  A
C1532      C1533   1.393       .  A
C1532      H1537   1.082       .  S
C1533      C1534   1.410       .  A
C1534      C1535   1.511       .  S
C1535      F1539   1.385       .  S
C1535      F1540   1.380       .  S
C1535      F1541   1.383       .  S
C1538      F1542   1.377       .  S
C1538      F1544   1.387       .  S
C1545      C1546   1.410       .  A
C1545      C1550   1.400       .  A
C1545      H1552   1.084       .  S
C1546      C1547   1.407       .  A
C1547      C1554   1.512       .  S
C1547      C1548   1.405       .  A
C1548      C1549   1.402       .  A
C1548      H1553   1.082       .  S
C1549      C1550   1.408       .  A
C1550      C1551   1.521       .  S
C1551      F1555   1.384       .  S
C1551      F1556   1.382       .  S
C1554      F3182   1.381       .  S
C1554      F2777   1.385   1_556  S
C1554      F2778   1.382       .  S
F1558      C3178   1.381   1_455  S
F1559      C2772   1.385       .  S
F1560      C2772   1.382   1_455  S
C1561      C1566   1.391       .  A
C1561      H1568   1.084       .  S
C1562      C1563   1.415       .  A
C1563      C1570   1.523       .  S
C1563      C1564   1.402   1_556  A
C1564      C1565   1.402       .  A
C1564      H1569   1.083       .  S
C1566      C1567   1.513       .  S
C1567      F1571   1.385       .  S
C1567      F1572   1.382       .  S
C1567      F1573   1.383       .  S
C1570      F1574   1.382       .  S
C1570      F1575   1.382   1_556  S
C1570      F1576   1.384   1_556  S
C1577      C1578   1.408       .  A
C1578      C1579   1.429       .  A
C1579      C1586   1.521       .  S
C1579      C1580   1.408       .  A
C1580      C1581   1.397       .  A
C1580      H1585   1.084       .  S
C1582      C1583   1.515       .  S
C1583      F1587   1.385       .  S
C1583      F1588   1.380       .  S
C1583      F1589   1.382       .  S
C1586      F1590   1.383       .  S
C1593      C1594   1.409       .  A
C1593      C1598   1.395       .  A
C1593      H1600   1.081       .  S
C1594      C1595   1.417       .  A
C1595      C1602   1.524       .  S
C1595      C1596   1.391       .  A
C1596      C1597   1.411       .  A
C1596      H1601   1.081       .  S
C1597      C1598   1.420       .  A
C1598      C1599   1.524       .  S
C1599      F1603   1.384       .  S
C1599      F1604   1.376       .  S
C1599      F1605   1.383       .  S
C1602      F1606   1.376       .  S
C1602      F1607   1.383       .  S
C1602      F1608   1.385       .  S
C1609      C1610   1.396       .  A
C1609      C1614   1.390       .  A
C1609      H1616   1.082       .  S
C1610      C1611   1.419       .  A
C1611      C1618   1.523       .  S
C1611      C1612   1.390       .  A
C1612      C1613   1.402       .  A
C1612      H1617   1.080       .  S
C1613      C1614   1.433       .  A
C1614      C1615   1.532       .  S
C1615      F1619   1.384       .  S
C1615      F1620   1.375       .  S
C1615      F1621   1.385       .  S
C1618      F1622   1.382       .  S
C1618      F1623   1.377       .  S
C1618      F1624   1.383       .  S
C1625      C1627   1.540       .  S
C1625      C1629   1.539       .  S
C1625      C1628   1.520       .  S
C1625      C2000   1.511       .  S
C1626      C1630   1.533       .  S
C1626      C1632   1.527       .  S
C1626      C1631   1.542       .  S
C1626      C2016   1.501       .  S
C1627      C1635   1.372       .  A
C1627      C2036   1.388       .  A
C1628      C1639   1.363       .  A
C1628      C2037   1.387       .  A
C1629      C1643   1.380       .  A
C1629      C2038   1.389       .  A
C1630      C2033   1.388   1_554  A
C1630      C1633   1.379       .  A
C1631      C2034   1.386   1_554  A
C1631      C1637   1.384       .  A
C1632      C2035   1.388   1_554  A
C1632      C1640   1.371       .  A
C1633      H1646   1.082       .  S
C1633      N2040   1.352   1_554  A
N1634      C2039   1.350       .  A
N1634      C1635   1.349       .  A
N1634      C1955   1.419       .  S
C1635      H1636   1.082       .  S
C1637      H1647   1.079       .  S
C1637      N1638   1.352       .  A
N1638      C2045   1.347   1_554  A
N1638      C2377   1.418       .  S
C1639      H1645   1.085       .  S
C1639      N2044   1.347       .  A
C1640      H1642   1.080       .  S
C1640      N2047   1.351   1_554  A
N1641      C2046   1.351       .  A
N1641      C1643   1.358       .  A
N1641      C1987   1.428       .  S
C1643      H1644   1.085       .  S
C1648      C1650   1.553       .  S
C1648      C1652   1.517       .  S
C1648      C1651   1.520       .  S
C1648      C2019   1.501       .  S
C1649      C1653   1.550       .  S
C1649      C1655   1.549       .  S
C1649      C1654   1.532       .  S
C1649      C2003   1.511       .  S
C1650      C1658   1.379       .  A
C1650      C1653   1.401       .  A
C1651      C1662   1.371       .  A
C1651      C1654   1.378       .  A
C1652      C1666   1.371       .  A
C1652      C1655   1.375       .  A
C1653      C1656   1.385       .  A
C1654      C1660   1.375       .  A
C1655      C1663   1.390       .  A
C1656      H1669   1.080       .  S
C1656      N1657   1.359       .  A
N1657      C1658   1.356       .  A
N1657      C1904   1.439       .  S
C1658      H1659   1.082       .  S
C1660      H1670   1.081       .  S
C1660      N1661   1.356       .  A
N1661      C1662   1.354       .  A
N1661      C1920   1.426       .  S
C1662      H1668   1.086       .  S
C1663      H1665   1.083       .  S
C1663      N1664   1.356       .  A
N1664      C1666   1.348       .  A
N1664      C1939   1.429       .  S
C1666      H1667   1.080       .  S
O1671      C1679   1.265       .  A
O1671     Co2503   2.006   1_545  S
O1672      C1680   1.281       .  A
O1672     Co1692   2.047       .  S
O1673      C1681   1.251       .  A
O1673     Co1693   1.960       .  S
O1674      C1682   1.268       .  A
O1674     Co2100   1.984   1_554  S
O1675      C1681   1.267       .  A
O1676     Co2097   2.109   1_554  S
O1677      C1680   1.238       .  A
O1677     Co2506   1.883   1_545  S
O1678      C1679   1.263       .  A
O1678     Co1693   1.964       .  S
C1679      C1984   1.490       .  S
C1680      C1952   1.454       .  S
C1681      C1859   1.485       .  S
O1683      C1696   1.254       .  A
O1684     Co1692   1.962       .  S
O1685      C1698   1.266       .  A
O1685     Co2505   2.015       .  S
O1686      C1699   1.304       .  A
O1686     Co1694   2.092       .  S
O1687      C1699   1.268       .  A
O1687     Co2504   1.866       .  S
O1688      C1698   1.261       .  A
O1688     Co1691   1.980       .  S
O1689      C1696   1.237       .  A
O1689     Co1694   1.940       .  S
O1690      C1697   1.285       .  A
O1690     Co1693   2.079       .  S
Co1691     O2483   2.006       .  S
Co1691     O2082   2.108       .  S
Co1691     O2507   2.089       .  S
Co1692     O2499   1.892       .  S
Co1693     O2497   2.013       .  S
Co1693     O1695   2.043       .  S
Co1694     O2080   1.985       .  S
Co1694     O2489   1.891       .  S
O1695     Co2503   2.091   1_545  S
C1696      C1968   1.450       .  S
C1698      C1888   1.506       .  S
C1699      C1875   1.470       .  S
O1700      C1708   1.227       .  A
O1700     Co2532   1.893   1_545  S
O1701      C1709   1.258       .  A
O1701     Co1721   1.965       .  S
O1702      C1710   1.265       .  A
O1702     Co1722   2.027       .  S
O1703      C1711   1.291   1_655  A
O1703     Co1723   2.099       .  S
O1704      C1710   1.251       .  A
O1705     Co1720   1.988       .  S
O1706      C1709   1.270       .  A
O1706     Co2535   2.020   1_545  S
O1707      C1708   1.280       .  A
O1707     Co1722   2.076       .  S
C1708      C1936   1.480       .  S
C1709      C1907   1.494       .  S
C1710      C1808   1.478       .  S
O1712      C1725   1.237   1_455  A
O1713     Co1721   2.072       .  S
O1714      C1727   1.270       .  A
O1714     Co2534   1.860       .  S
O1715      C1728   1.256       .  A
O1715     Co1723   1.969       .  S
O1716      C1728   1.271       .  A
O1716     Co2533   2.018       .  S
O1717      C1727   1.305       .  A
O1717     Co1720   2.100       .  S
O1718      C1725   1.257       .  A
O1718     Co1723   1.994       .  S
O1719      C1726   1.275   1_565  A
O1719     Co1722   2.019   1_565  S
Co1720     O2512   1.891       .  S
Co1720     O2536   2.055       .  S
Co1721     O2528   2.019       .  S
Co1722     O2526   1.859       .  S
Co1722     O1724   2.018       .  S
Co1723     O2518   2.018       .  S
O1724     Co2532   2.056   1_545  S
C1725      C1923   1.451       .  S
C1727      C1840   1.460       .  S
C1728      C1824   1.498       .  S
C1729      C1731   1.544       .  S
C1729      C1733   1.523       .  S
C1729      C1732   1.552       .  S
C1729      C1776   1.500       .  S
C1730      C1734   1.549       .  S
C1730      C1736   1.520       .  S
C1730      C1735   1.532       .  S
C1730      C1795   1.502       .  S
C1731      C1739   1.384       .  A
C1731      C1734   1.403       .  A
C1732      C1743   1.387       .  A
C1732      C1735   1.389       .  A
C1733      C1747   1.379       .  A
C1733      C1736   1.366       .  A
C1734      C1737   1.383       .  A
C1735      C1741   1.372       .  A
C1736      C1744   1.375       .  A
C1737      H1750   1.083       .  S
C1737      N1738   1.354       .  A
N1738      C1739   1.353       .  A
N1738      C1891   1.437       .  S
C1739      H1740   1.081       .  S
C1741      H1751   1.083       .  S
C1741      N1742   1.353       .  A
N1742      C1743   1.361       .  A
N1742      C1856   1.435       .  S
C1743      H1749   1.081       .  S
C1744      H1746   1.081       .  S
C1744      N1745   1.353       .  A
N1745      C1747   1.353       .  A
N1745      C1872   1.426       .  S
C1747      H1748   1.084       .  S
C1752      C1754   1.534       .  S
C1752      C1756   1.526       .  S
C1752      C1755   1.553       .  S
C1752      C1792   1.500       .  S
C1753      C1757   1.541       .  S
C1753      C1759   1.526       .  S
C1753      C1758   1.536       .  S
C1753      C1779   1.503       .  S
C1754      C1762   1.379       .  A
C1754      C1757   1.387       .  A
C1755      C1766   1.386       .  A
C1755      C1758   1.395       .  A
C1756      C1770   1.379       .  A
C1756      C1759   1.376       .  A
C1757      C1760   1.377       .  A
C1758      C1764   1.373       .  A
C1759      C1767   1.377       .  A
C1760      H1773   1.082       .  S
C1760      N1761   1.352       .  A
N1761      C1762   1.352       .  A
N1761      C1843   1.427       .  S
C1762      H1763   1.080       .  S
C1764      H1774   1.083       .  S
C1764      N1765   1.352       .  A
N1765      C1766   1.355       .  A
N1765      C1811   1.431       .  S
C1766      H1772   1.079       .  S
C1767      H1769   1.080       .  S
C1767      N1768   1.357       .  A
N1768      C1770   1.355       .  A
N1768      C1827   1.433       .  S
C1770      H1771   1.084       .  S
C1775      C1776   1.408       .  A
C1775      C1780   1.393       .  A
C1775      H1782   1.084       .  S
C1776      C1777   1.426       .  A
C1777      C1784   1.528       .  S
C1777      C1778   1.390       .  A
C1778      C1779   1.402       .  A
C1778      H1783   1.084       .  S
C1779      C1780   1.417       .  A
C1780      C1781   1.523       .  S
C1781      F1785   1.384       .  S
C1781      F1786   1.379       .  S
C1781      F1787   1.383       .  S
C1784      F1788   1.385       .  S
C1784      F1789   1.378       .  S
C1784      F1790   1.381       .  S
C1791      C2198   1.395       .  A
C1791      C1796   1.389       .  A
C1791      H1798   1.081       .  S
C1792      C2197   1.396   1_554  A
C1792      C2199   1.422   1_554  A
C1793      C2206   1.526       .  S
C1793      C2198   1.423       .  A
C1793      C1794   1.391       .  A
C1794      C1795   1.404       .  A
C1794      H1799   1.081       .  S
C1795      C1796   1.431       .  A
C1796      C1797   1.531       .  S
C1797      F1801   1.385       .  S
C1797      F1802   1.375       .  S
C1797      F1803   1.384       .  S
C1800      C2199   1.526   1_554  S
C1800      F1804   1.377       .  S
C1800      F1805   1.383       .  S
C1800      F2212   1.383   1_554  S
F1806      C2206   1.383       .  S
C1807      C1808   1.409       .  A
C1807      C1812   1.400       .  A
C1807      H1814   1.084       .  S
C1808      C1809   1.414       .  A
C1809      C1816   1.515       .  S
C1809      C1810   1.410       .  A
C1810      C1811   1.405       .  A
C1810      H1815   1.083       .  S
C1811      C1812   1.405       .  A
C1812      C1813   1.515       .  S
C1813      F1817   1.385       .  S
C1813      F1818   1.383       .  S
C1813      F1819   1.382       .  S
C1816      F1820   1.383       .  S
C1816      F1821   1.381       .  S
C1816      F1822   1.385       .  S
C1823      C1824   1.411       .  A
C1823      C1828   1.406       .  A
C1823      H1830   1.082       .  S
C1824      C1825   1.430       .  A
C1825      C1832   1.521       .  S
C1825      C1826   1.409       .  A
C1826      C1827   1.397       .  A
C1826      H1831   1.083       .  S
C1827      C1828   1.407       .  A
C1828      C1829   1.516       .  S
C1829      F2645   1.384       .  S
C1829      F1834   1.383       .  S
C1829      F1835   1.382       .  S
C1832      F1836   1.382       .  S
C1832      F1837   1.383       .  S
C1832      F1838   1.386       .  S
F1833      C2641   1.384   1_545  S
C1839      C1840   1.397       .  A
C1839      C1844   1.397       .  A
C1839      H1846   1.084       .  S
C1840      C1841   1.413       .  A
C1841      C1848   1.518       .  S
C1841      C1842   1.406       .  A
C1842      C1843   1.401       .  A
C1842      H1847   1.083       .  S
C1843      C1844   1.414       .  A
C1844      C1845   1.517       .  S
C1845      F2661   1.385       .  S
C1845      F1850   1.380       .  S
C1845      F1851   1.381       .  S
C1848      F1852   1.383       .  S
C1848      F1853   1.379       .  S
C1848      F1854   1.384       .  S
F1849      C2657   1.385   1_545  S
C1855      C1856   1.396       .  A
C1855      C1860   1.403       .  A
C1855      H1862   1.082       .  S
C1856      C1857   1.410       .  A
C1857      C1864   1.512       .  S
C1857      C1858   1.413       .  A
C1858      C1859   1.407       .  A
C1858      H1863   1.082       .  S
C1859      C1860   1.426       .  A
C1860      C1861   1.523       .  S
C1861      F1865   1.385       .  S
C1861      F1866   1.382       .  S
C1861      F1867   1.383       .  S
C1864      F1868   1.383       .  S
C1864      F1869   1.383       .  S
C1864      F1870   1.384       .  S
C1871      C1872   1.399       .  A
C1871      C1876   1.403       .  A
C1871      H1878   1.083       .  S
C1872      C1873   1.407       .  A
C1873      C1880   1.514       .  S
C1873      C1874   1.399       .  A
C1874      C1875   1.404       .  A
C1874      H1879   1.083       .  S
C1875      C1876   1.422       .  A
C1876      C2689   1.522       .  S
C1877      C2688   1.530   1_545  S
C1877      F1881   1.388       .  S
C1877      F1882   1.383       .  S
C1877      F1883   1.376       .  S
C1880      F1884   1.383       .  S
C1880      F1885   1.382       .  S
C1880      F1886   1.385       .  S
C1887      C1888   1.416       .  A
C1887      C1892   1.412       .  A
C1887      H1894   1.083       .  S
C1888      C1889   1.431       .  A
C1889      C2708   1.523       .  S
C1889      C1890   1.410       .  A
C1890      C1891   1.397       .  A
C1890      H1895   1.083       .  S
C1891      C1892   1.407       .  A
C1892      C1893   1.516       .  S
C1893      F1897   1.384       .  S
C1893      F1898   1.383       .  S
C1893      F1899   1.384       .  S
C1896      C2701   1.523   1_545  S
C1896      F1900   1.382       .  S
C1896      F1901   1.384       .  S
C1896      F1902   1.385       .  S
C1903      C1904   1.401       .  A
C1903      C1908   1.410       .  A
C1903      H1910   1.083       .  S
C1904      C1905   1.411       .  A
C1905      C1912   1.516       .  S
C1905      C1906   1.409       .  A
C1906      C1907   1.410       .  A
C1906      H1911   1.083       .  S
C1907      C1908   1.424       .  A
C1908      C1909   1.519       .  S
C1909      F1913   1.383       .  S
C1909      F1914   1.383   1_655  S
C1912      F1916   1.383       .  S
C1912      F1917   1.383       .  S
C1912      F1918   1.385   1_545  S
C1919      C1920   1.401       .  A
C1919      C1924   1.396       .  A
C1919      H1926   1.083       .  S
C1920      C1921   1.414       .  A
C1921      C1928   1.516       .  S
C1921      C1922   1.402       .  A
C1922      C1923   1.399       .  A
C1922      H1927   1.083   1_655  S
C1923      C1924   1.409       .  A
C1924      C1925   1.519       .  S
C1925      F1929   1.384       .  S
C1925      F1930   1.382       .  S
C1925      F1931   1.384       .  S
C1928      F1932   1.381       .  S
C1928      F1933   1.383       .  S
C1928      F1934   1.386   1_655  S
C1935      C1936   1.397       .  A
C1935      C1940   1.401       .  A
C1935      H1942   1.082       .  S
C1936      C1937   1.437       .  A
C1937      C1944   1.529       .  S
C1937      C1938   1.405       .  A
C1938      C1939   1.393       .  A
C1938      H1943   1.082       .  S
C1939      C1940   1.411       .  A
C1940      C1941   1.511       .  S
C1941      F1945   1.385       .  S
C1941      F1946   1.380       .  S
C1941      F1947   1.383       .  S
C1944      F1948   1.377   1_545  S
C1944      F2761   1.380   1_545  S
C1944      F1950   1.387   1_545  S
F1949      C2756   1.380       .  S
C1951      C1952   1.407       .  A
C1951      C1956   1.398       .  A
C1951      H1958   1.084       .  S
C1952      C1953   1.403       .  A
C1953      C1960   1.515       .  S
C1953      C1954   1.402       .  A
C1954      C1955   1.402       .  A
C1954      H1959   1.082       .  S
C1955      C1956   1.409       .  A
C1956      C1957   1.520       .  S
C1957      F1961   1.384   1_545  S
C1957      F1962   1.382       .  S
C1957      F2369   1.382       .  S
F1963      C2363   1.381   1_554  S
C1967      C2374   1.399       .  A
C1967      C1972   1.391       .  A
C1967      H1974   1.084       .  S
C1968      C2373   1.399       .  A
C1968      C1969   1.415       .  A
C1969      C1976   1.523       .  S
C1969      C1970   1.402       .  A
C1970      C1971   1.402       .  A
C1970      H1975   1.083       .  S
C1971      C2378   1.404       .  A
C1971      N2044   1.417       .  S
C1972      C1973   1.513       .  S
C1972      C2377   1.404   1_556  A
C1973      F1977   1.385       .  S
C1973      F1978   1.382       .  S
C1973      F1979   1.383   1_556  S
C1976      F1980   1.382       .  S
C1976      F1981   1.382       .  S
C1976      F1982   1.384       .  S
C1983      C1984   1.408       .  A
C1983      C2394   1.398       .  A
C1983      H2396   1.082       .  S
C1984      C1985   1.429       .  A
C1985      C1992   1.521       .  S
C1985      C1986   1.408       .  A
C1986      C1987   1.397       .  A
C1986      H1991   1.084       .  S
C1987      C2394   1.407       .  A
C1988      C1989   1.515       .  S
C1988      C2389   1.398       .  A
C1988      C2393   1.407       .  A
C1989      F1993   1.385       .  S
C1989      F1994   1.380       .  S
C1989      F1995   1.382   1_556  S
H1990      C2389   1.082       .  S
C1992      F1996   1.383   1_545  S
C1992      F2809   1.383   1_545  S
C1992      F2810   1.386   1_545  S
F1997      C2804   1.384       .  S
F1998      C2804   1.386       .  S
C1999      C2000   1.409       .  A
C1999      C2004   1.396       .  A
C1999      H2006   1.081       .  S
C2000      C2001   1.416       .  A
C2001      C2008   1.523       .  S
C2001      C2002   1.390       .  A
C2002      C2003   1.411       .  A
C2002      H2007   1.081       .  S
C2003      C2004   1.421       .  A
C2004      C2005   1.525       .  S
C2005      F2009   1.384       .  S
C2005      F2010   1.376       .  S
C2005      F2011   1.383       .  S
C2008      F2012   1.377       .  S
C2008      F2013   1.383       .  S
C2008      F2014   1.385       .  S
C2015      C2016   1.396       .  A
C2015      C2020   1.390       .  A
C2015      H2022   1.082       .  S
C2016      C2017   1.419       .  A
C2017      C2024   1.523       .  S
C2017      C2018   1.389       .  A
C2018      C2019   1.402       .  A
C2018      H2023   1.080       .  S
C2019      C2020   1.433       .  A
C2020      C2021   1.532       .  S
C2021      F2025   1.384       .  S
C2021      F2026   1.375       .  S
C2021      F2027   1.384       .  S
C2024      F2028   1.382       .  S
C2024      F2029   1.377       .  S
C2024      F2030   1.383       .  S
C2031      C2033   1.542       .  S
C2031      C2035   1.539       .  S
C2031      C2034   1.520       .  S
C2031      C2406   1.510       .  S
C2032      C2036   1.530       .  S
C2032      C2038   1.526       .  S
C2032      C2037   1.542       .  S
C2032      C2422   1.501       .  S
C2033      C2041   1.374       .  A
C2034      C2045   1.364       .  A
C2035      C2049   1.380       .  A
C2036      C2039   1.377       .  A
C2037      C2043   1.383       .  A
C2038      C2046   1.371       .  A
C2039      H2052   1.082       .  S
N2040      C2041   1.349       .  A
N2040      C2361   1.424       .  S
C2041      H2042   1.082       .  S
C2043      H2053   1.079       .  S
C2043      N2044   1.352       .  A
C2045      H2051   1.085       .  S
C2046      H2048   1.079       .  S
N2047      C2049   1.358       .  A
N2047      C2393   1.428       .  S
C2049      H2050   1.085       .  S
C2054      C2056   1.553       .  S
C2054      C2058   1.517       .  S
C2054      C2057   1.521       .  S
C2054      C2425   1.502       .  S
C2055      C2059   1.550       .  S
C2055      C2061   1.548       .  S
C2055      C2060   1.532       .  S
C2055      C2409   1.511       .  S
C2056      C2064   1.380       .  A
C2056      C2059   1.401       .  A
C2057      C2068   1.372       .  A
C2057      C2060   1.378       .  A
C2058      C2072   1.371       .  A
C2058      C2061   1.376       .  A
C2059      C2062   1.385       .  A
C2060      C2066   1.375       .  A
C2061      C2069   1.390       .  A
C2062      H2075   1.080       .  S
C2062      N2063   1.359       .  A
N2063      C2064   1.355       .  A
N2063      C2310   1.438       .  S
C2064      H2065   1.082       .  S
C2066      H2076   1.081       .  S
C2066      N2067   1.356       .  A
N2067      C2068   1.354       .  A
N2067      C2326   1.426       .  S
C2068      H2074   1.086       .  S
C2069      H2071   1.083       .  S
C2069      N2070   1.356       .  A
N2070      C2072   1.348       .  A
N2070      C2345   1.429       .  S
C2072      H2073   1.080       .  S
O2077      C2085   1.265       .  A
O2077     Co2909   2.006   1_545  S
O2078      C2086   1.275       .  A
O2078     Co2098   2.067       .  S
O2079      C2087   1.251       .  A
O2079     Co2099   1.960       .  S
O2080      C2088   1.269       .  A
O2081      C2087   1.267       .  A
O2083      C2086   1.230       .  A
O2083     Co2912   1.892   1_545  S
O2084      C2085   1.263       .  A
O2084     Co2099   1.963       .  S
C2085      C2390   1.490       .  S
C2086      C2358   1.469       .  S
C2087      C2265   1.485       .  S
O2089      C2102   1.254       .  A
O2090     Co2098   2.008   1_565  S
O2091      C2104   1.266       .  A
O2091     Co2911   2.014       .  S
O2092      C2105   1.304       .  A
O2092     Co2100   2.092       .  S
O2093      C2105   1.268       .  A
O2093     Co2910   1.866       .  S
O2094      C2104   1.261       .  A
O2094     Co2097   1.982       .  S
O2095      C2102   1.237       .  A
O2095     Co2100   1.941       .  S
O2096      C2103   1.285       .  A
O2096     Co2099   2.079       .  S
Co2097     O2889   2.005       .  S
Co2097     O2913   2.091       .  S
Co2098     O2905   1.869       .  S
Co2099     O2903   2.015       .  S
Co2099     O2101   2.041       .  S
Co2100     O2895   1.890       .  S
O2101     Co2909   2.090   1_545  S
C2102      C2374   1.451       .  S
C2104      C2294   1.507       .  S
C2105      C2281   1.470       .  S
O2106      C2114   1.227       .  A
O2106     Co2938   1.894   1_545  S
O2107      C2115   1.257       .  A
O2107     Co2127   1.961       .  S
O2108      C2116   1.265       .  A
O2108     Co2128   2.028       .  S
O2109      C2117   1.291   1_655  A
O2109     Co2129   2.099       .  S
O2110      C2116   1.251       .  A
O2111     Co2126   1.987       .  S
O2112      C2115   1.270       .  A
O2112     Co2941   2.020   1_545  S
O2113      C2114   1.280       .  A
O2113     Co2128   2.074       .  S
C2114      C2342   1.480       .  S
C2115      C2313   1.495       .  S
C2116      C2214   1.477       .  S
O2118      C2131   1.237   1_455  A
O2119     Co2127   2.071       .  S
O2120      C2133   1.270       .  A
O2120     Co2940   1.861       .  S
O2121      C2134   1.256       .  A
O2121     Co2129   1.969       .  S
O2122      C2134   1.271       .  A
O2122     Co2939   2.019       .  S
O2123      C2133   1.305       .  A
O2123     Co2126   2.098       .  S
O2124      C2131   1.257       .  A
O2124     Co2129   1.994       .  S
O2125      C2132   1.275   1_565  A
O2125     Co2128   2.017   1_565  S
Co2126     O2918   1.893       .  S
Co2126     O2942   2.056       .  S
Co2127     O2934   2.020       .  S
Co2128     O2932   1.861       .  S
Co2128     O2130   2.018       .  S
Co2129     O2924   2.020       .  S
O2130     Co2938   2.057   1_545  S
C2131      C2329   1.451       .  S
C2133      C2246   1.459       .  S
C2134      C2230   1.499       .  S
C2135      C2137   1.543       .  S
C2135      C2139   1.522       .  S
C2135      C2138   1.552       .  S
C2135      C2182   1.500       .  S
C2136      C2140   1.549       .  S
C2136      C2142   1.519       .  S
C2136      C2141   1.531       .  S
C2136      C2201   1.501       .  S
C2137      C2145   1.383       .  A
C2137      C2140   1.402       .  A
C2138      C2149   1.387       .  A
C2138      C2141   1.389       .  A
C2139      C2153   1.379       .  A
C2139      C2142   1.366       .  A
C2140      C2143   1.384       .  A
C2141      C2147   1.372       .  A
C2142      C2150   1.374       .  A
C2143      H2156   1.083       .  S
C2143      N2144   1.354       .  A
N2144      C2145   1.353       .  A
N2144      C2297   1.437       .  S
C2145      H2146   1.081       .  S
C2147      H2157   1.083       .  S
C2147      N2148   1.354       .  A
N2148      C2149   1.362       .  A
N2148      C2262   1.435       .  S
C2149      H2155   1.081       .  S
C2150      H2152   1.081       .  S
C2150      N2151   1.353       .  A
N2151      C2153   1.353       .  A
N2151      C2278   1.425       .  S
C2153      H2154   1.084       .  S
C2158      C2160   1.534       .  S
C2158      C2162   1.527       .  S
C2158      C2161   1.553       .  S
C2158      C2198   1.501       .  S
C2159      C2163   1.541       .  S
C2159      C2165   1.526       .  S
C2159      C2164   1.536       .  S
C2159      C2185   1.503       .  S
C2160      C2168   1.378       .  A
C2160      C2163   1.387       .  A
C2161      C2172   1.386       .  A
C2161      C2164   1.395       .  A
C2162      C2176   1.379       .  A
C2162      C2165   1.376       .  A
C2163      C2166   1.377       .  A
C2164      C2170   1.373       .  A
C2165      C2173   1.377       .  A
C2166      H2179   1.082       .  S
C2166      N2167   1.352       .  A
N2167      C2168   1.352       .  A
N2167      C2249   1.426       .  S
C2168      H2169   1.080       .  S
C2170      H2180   1.081       .  S
C2170      N2171   1.352       .  A
N2171      C2172   1.354       .  A
N2171      C2217   1.430       .  S
C2172      H2178   1.080       .  S
C2173      H2175   1.080       .  S
C2173      N2174   1.357       .  A
N2174      C2176   1.355       .  A
N2174      C2233   1.433       .  S
C2176      H2177   1.084       .  S
C2181      C2182   1.407       .  A
C2181      C2186   1.393       .  A
C2181      H2188   1.084       .  S
C2182      C2183   1.426       .  A
C2183      C2190   1.528       .  S
C2183      C2184   1.390       .  A
C2184      C2185   1.402       .  A
C2184      H2189   1.084       .  S
C2185      C2186   1.417       .  A
C2186      C2187   1.523       .  S
C2187      F2191   1.384       .  S
C2187      F2192   1.379       .  S
C2187      F2193   1.383       .  S
C2190      F2194   1.385       .  S
C2190      F2195   1.378       .  S
C2190      F2196   1.381       .  S
C2197      C2202   1.389       .  A
C2197      H2204   1.081   1_556  S
C2199      C2200   1.391       .  A
C2200      C2201   1.404       .  A
C2200      H2205   1.081       .  S
C2201      C2202   1.431       .  A
C2202      C2203   1.531       .  S
C2203      F2207   1.385       .  S
C2203      F2208   1.375       .  S
C2203      F2209   1.384       .  S
C2206      F2210   1.377       .  S
C2206      F2211   1.383       .  S
C2213      C2214   1.409       .  A
C2213      C2218   1.400       .  A
C2213      H2220   1.084       .  S
C2214      C2215   1.414       .  A
C2215      C2222   1.515       .  S
C2215      C2216   1.410       .  A
C2216      C2217   1.405       .  A
C2216      H2221   1.083       .  S
C2217      C2218   1.405       .  A
C2218      C2219   1.515       .  S
C2219      F2223   1.385       .  S
C2219      F2224   1.383       .  S
C2219      F2225   1.382       .  S
C2222      F2226   1.383       .  S
C2222      F2227   1.382       .  S
C2222      F2228   1.385       .  S
C2229      C2230   1.411       .  A
C2229      C2234   1.406       .  A
C2229      H2236   1.082       .  S
C2230      C2231   1.430       .  A
C2231      C2238   1.521       .  S
C2231      C2232   1.410       .  A
C2232      C2233   1.397       .  A
C2232      H2237   1.083       .  S
C2233      C2234   1.407       .  A
C2234      C2235   1.516       .  S
C2235      F3051   1.384       .  S
C2235      F2240   1.383       .  S
C2235      F2241   1.382       .  S
C2238      F2242   1.382       .  S
C2238      F2243   1.383       .  S
C2238      F2244   1.386       .  S
F2239      C3047   1.384   1_545  S
C2245      C2246   1.397       .  A
C2245      C2250   1.396       .  A
C2245      H2252   1.084       .  S
C2246      C2247   1.413       .  A
C2247      C2254   1.518       .  S
C2247      C2248   1.405       .  A
C2248      C2249   1.401       .  A
C2248      H2253   1.083       .  S
C2249      C2250   1.414       .  A
C2250      C2251   1.517       .  S
C2251      F3067   1.385       .  S
C2251      F2256   1.380       .  S
C2251      F2257   1.382       .  S
C2254      F2258   1.383       .  S
C2254      F2259   1.379       .  S
C2254      F2260   1.384       .  S
F2255      C3063   1.385   1_545  S
C2261      C2262   1.396       .  A
C2261      C2266   1.403       .  A
C2261      H2268   1.082       .  S
C2262      C2263   1.410       .  A
C2263      C2270   1.512       .  S
C2263      C2264   1.413       .  A
C2264      C2265   1.407       .  A
C2264      H2269   1.082       .  S
C2265      C2266   1.426       .  A
C2266      C2267   1.523       .  S
C2267      F2271   1.385       .  S
C2267      F2272   1.382       .  S
C2267      F2273   1.383       .  S
C2270      F2274   1.383       .  S
C2270      F2275   1.383       .  S
C2270      F2276   1.384       .  S
C2277      C2278   1.398       .  A
C2277      C2282   1.403       .  A
C2277      H2284   1.083       .  S
C2278      C2279   1.407       .  A
C2279      C2286   1.514       .  S
C2279      C2280   1.399       .  A
C2280      C2281   1.404       .  A
C2280      H2285   1.083       .  S
C2281      C2282   1.422       .  A
C2282      C3095   1.522       .  S
C2283      C3094   1.522   1_545  S
C2283      F2287   1.384       .  S
C2283      F2288   1.383       .  S
C2283      F2289   1.381       .  S
C2286      F2290   1.383       .  S
C2286      F2291   1.382       .  S
C2286      F2292   1.385       .  S
C2293      C2294   1.416       .  A
C2293      C2298   1.412       .  A
C2293      H2300   1.083       .  S
C2294      C2295   1.431       .  A
C2295      C3114   1.523       .  S
C2295      C2296   1.410       .  A
C2296      C2297   1.396       .  A
C2296      H2301   1.083       .  S
C2297      C2298   1.407       .  A
C2298      C2299   1.516       .  S
C2299      F2303   1.384       .  S
C2299      F2304   1.383       .  S
C2299      F2305   1.384       .  S
C2302      C3107   1.523   1_545  S
C2302      F2306   1.382       .  S
C2302      F2307   1.384       .  S
C2302      F2308   1.385       .  S
C2309      C2310   1.399       .  A
C2309      C2314   1.410       .  A
C2309      H2316   1.083       .  S
C2310      C2311   1.410       .  A
C2311      C2318   1.516       .  S
C2311      C2312   1.409       .  A
C2312      C2313   1.411       .  A
C2312      H2317   1.083       .  S
C2313      C2314   1.425       .  A
C2314      C2315   1.520       .  S
C2315      F2319   1.382       .  S
C2315      F2320   1.384   1_655  S
C2318      F2322   1.383       .  S
C2318      F2323   1.383       .  S
C2318      F2324   1.385   1_545  S
C2325      C2326   1.401       .  A
C2325      C2330   1.397       .  A
C2325      H2332   1.083       .  S
C2326      C2327   1.414       .  A
C2327      C2334   1.516       .  S
C2327      C2328   1.402       .  A
C2328      C2329   1.399       .  A
C2328      H2333   1.083   1_655  S
C2329      C2330   1.409       .  A
C2330      C2331   1.519       .  S
C2331      F2335   1.384       .  S
C2331      F2336   1.382       .  S
C2331      F2337   1.384       .  S
C2334      F2338   1.381       .  S
C2334      F2339   1.383       .  S
C2334      F2340   1.385   1_655  S
C2341      C2342   1.397       .  A
C2341      C2346   1.400       .  A
C2341      H2348   1.082       .  S
C2342      C2343   1.437       .  A
C2343      C2350   1.530       .  S
C2343      C2344   1.405       .  A
C2344      C2345   1.394       .  A
C2344      H2349   1.082       .  S
C2345      C2346   1.410       .  A
C2346      C2347   1.511       .  S
C2347      F2351   1.385       .  S
C2347      F2352   1.380       .  S
C2347      F2353   1.383       .  S
C2350      F2354   1.377   1_545  S
C2350      F3167   1.380   1_545  S
C2350      F2356   1.387   1_545  S
F2355      C3162   1.380       .  S
C2357      C2358   1.410       .  A
C2357      C2362   1.400       .  A
C2357      H2364   1.084       .  S
C2358      C2359   1.407       .  A
C2359      C2366   1.512       .  S
C2359      C2360   1.405       .  A
C2360      C2361   1.402       .  A
C2360      H2365   1.082       .  S
C2361      C2362   1.408       .  A
C2362      C2363   1.521       .  S
C2363      F2367   1.384   1_545  S
C2363      F2368   1.382       .  S
C2373      C2378   1.390       .  A
C2373      H2380   1.084       .  S
C2374      C2375   1.415       .  A
C2375      C2382   1.523       .  S
C2375      C2376   1.403   1_556  A
C2376      C2377   1.402       .  A
C2376      H2381   1.083       .  S
C2378      C2379   1.513       .  S
C2379      F2383   1.385       .  S
C2379      F2384   1.382       .  S
C2379      F2385   1.383       .  S
C2382      F2386   1.382       .  S
C2382      F2387   1.382   1_556  S
C2382      F2388   1.384   1_556  S
C2389      C2390   1.408       .  A
C2390      C2391   1.429       .  A
C2391      C2398   1.521       .  S
C2391      C2392   1.408       .  A
C2392      C2393   1.397       .  A
C2392      H2397   1.084       .  S
C2394      C2395   1.515       .  S
C2395      F2399   1.385       .  S
C2395      F2400   1.380       .  S
C2395      F2401   1.382       .  S
C2398      F2402   1.383   1_545  S
C2398      F3215   1.384   1_546  S
C2398      F3216   1.386   1_546  S
F2403      C3210   1.383   1_554  S
F2404      C3210   1.386   1_554  S
C2405      C2406   1.408       .  A
C2405      C2410   1.395       .  A
C2405      H2412   1.081       .  S
C2406      C2407   1.416       .  A
C2407      C2414   1.524       .  S
C2407      C2408   1.391       .  A
C2408      C2409   1.411       .  A
C2408      H2413   1.081       .  S
C2409      C2410   1.421       .  A
C2410      C2411   1.525       .  S
C2411      F2415   1.384       .  S
C2411      F2416   1.376       .  S
C2411      F2417   1.383       .  S
C2414      F2418   1.377       .  S
C2414      F2419   1.383       .  S
C2414      F2420   1.385       .  S
C2421      C2422   1.395       .  A
C2421      C2426   1.389       .  A
C2421      H2428   1.082       .  S
C2422      C2423   1.419       .  A
C2423      C2430   1.524       .  S
C2423      C2424   1.390       .  A
C2424      C2425   1.403       .  A
C2424      H2429   1.080       .  S
C2425      C2426   1.433       .  A
C2426      C2427   1.532       .  S
C2427      F2431   1.384       .  S
C2427      F2432   1.375       .  S
C2427      F2433   1.385       .  S
C2430      F2434   1.383       .  S
C2430      F2435   1.377       .  S
C2430      F2436   1.383       .  S
C2437      C2439   1.542       .  S
C2437      C2441   1.538       .  S
C2437      C2440   1.519       .  S
C2437      C2812   1.511       .  S
C2438      C2442   1.532       .  S
C2438      C2444   1.526       .  S
C2438      C2443   1.543       .  S
C2438      C2828   1.501       .  S
C2439      C2447   1.374       .  A
C2439      C2848   1.389       .  A
C2440      C2451   1.363       .  A
C2440      C2849   1.387       .  A
C2441      C2455   1.380       .  A
C2441      C2850   1.389       .  A
C2442      C2845   1.388   1_554  A
C2442      C2445   1.378       .  A
C2443      C2846   1.387   1_554  A
C2443      C2449   1.384       .  A
C2444      C2847   1.389   1_554  A
C2444      C2452   1.371       .  A
C2445      H2458   1.082       .  S
C2445      N2852   1.351   1_554  A
N2446      C2851   1.352       .  A
N2446      C2447   1.349       .  A
N2446      C2767   1.424       .  S
C2447      H2448   1.082       .  S
C2449      H2459   1.079       .  S
C2449      N2450   1.352       .  A
N2450      C2857   1.347   1_554  A
N2450      C3189   1.418       .  S
C2451      H2457   1.085       .  S
C2451      N2856   1.347       .  A
C2452      H2454   1.080       .  S
C2452      N2859   1.351   1_554  A
N2453      C2858   1.351       .  A
N2453      C2455   1.358       .  A
N2453      C2799   1.427       .  S
C2455      H2456   1.085       .  S
C2460      C2462   1.552       .  S
C2460      C2464   1.517       .  S
C2460      C2463   1.520       .  S
C2460      C2831   1.501       .  S
C2461      C2465   1.551       .  S
C2461      C2467   1.548       .  S
C2461      C2466   1.532       .  S
C2461      C2815   1.511       .  S
C2462      C2470   1.379       .  A
C2462      C2465   1.402       .  A
C2463      C2474   1.371       .  A
C2463      C2466   1.378       .  A
C2464      C2478   1.371       .  A
C2464      C2467   1.375       .  A
C2465      C2468   1.385       .  A
C2466      C2472   1.374       .  A
C2467      C2475   1.390       .  A
C2468      H2481   1.079       .  S
C2468      N2469   1.359       .  A
N2469      C2470   1.355       .  A
N2469      C2716   1.438       .  S
C2470      H2471   1.083       .  S
C2472      H2482   1.081       .  S
C2472      N2473   1.356       .  A
N2473      C2474   1.353       .  A
N2473      C2732   1.426       .  S
C2474      H2480   1.086       .  S
C2475      H2477   1.083       .  S
C2475      N2476   1.356       .  A
N2476      C2478   1.348       .  A
N2476      C2751   1.428       .  S
C2478      H2479   1.080       .  S
O2483      C2491   1.265       .  A
O2484      C2492   1.276       .  A
O2484     Co2504   2.068       .  S
O2485      C2493   1.251       .  A
O2485     Co2505   1.960       .  S
O2486      C2494   1.268       .  A
O2486     Co2912   1.982   1_544  S
O2487      C2493   1.267       .  A
O2488     Co2909   2.109   1_554  S
O2489      C2492   1.230       .  A
O2490      C2491   1.263       .  A
O2490     Co2505   1.963       .  S
C2491      C2796   1.489       .  S
C2492      C2764   1.469       .  S
C2493      C2671   1.485       .  S
O2495      C2508   1.255       .  A
O2496     Co2504   2.009       .  S
O2497      C2510   1.265   1_545  A
O2498      C2511   1.283       .  A
O2498     Co2506   2.046       .  S
O2499      C2511   1.238   1_545  A
O2500      C2510   1.261       .  A
O2500     Co2503   1.982       .  S
O2501      C2508   1.242       .  A
O2501     Co2506   1.946       .  S
O2502      C2509   1.285       .  A
O2502     Co2505   2.078       .  S
Co2503     O2894   2.108       .  S
Co2505     O2507   2.042       .  S
Co2506     O2892   1.970   1_565  S
C2508      C2780   1.446       .  S
C2510      C2700   1.505       .  S
C2511      C2687   1.461       .  S
O2512      C2520   1.227       .  A
O2513      C2521   1.258       .  A
O2513     Co2533   1.962       .  S
O2514      C2522   1.265       .  A
O2514     Co2534   2.028       .  S
O2515      C2523   1.289   1_665  A
O2515     Co2535   2.082       .  S
O2516      C2522   1.250       .  A
O2517     Co2532   1.987   1_545  S
O2518      C2521   1.270       .  A
O2519      C2520   1.280       .  A
O2519     Co2534   2.074       .  S
C2520      C2748   1.479       .  S
C2521      C2719   1.494       .  S
C2522      C2620   1.477       .  S
O2524      C2537   1.237   1_455  A
O2525     Co2533   2.074       .  S
O2526      C2539   1.270   1_545  A
O2527      C2540   1.256       .  A
O2527     Co2535   1.966       .  S
O2528      C2540   1.271   1_545  A
O2529      C2539   1.304       .  A
O2529     Co2532   2.097       .  S
O2530      C2537   1.257       .  A
O2530     Co2535   1.996       .  S
O2531      C2538   1.275       .  A
O2531     Co2534   2.017       .  S
Co2534     O2536   2.019       .  S
C2537      C2735   1.451       .  S
C2539      C2652   1.458       .  S
C2540      C2636   1.497       .  S
C2541      C2543   1.543       .  S
C2541      C2545   1.520       .  S
C2541      C2544   1.551       .  S
C2541      C2588   1.501       .  S
C2542      C2546   1.549       .  S
C2542      C2548   1.518       .  S
C2542      C2547   1.532       .  S
C2542      C2607   1.503       .  S
C2543      C2551   1.382       .  A
C2543      C2546   1.403       .  A
C2544      C2555   1.386       .  A
C2544      C2547   1.390       .  A
C2545      C2559   1.377       .  A
C2545      C2548   1.367       .  A
C2546      C2549   1.383       .  A
C2547      C2553   1.372       .  A
C2548      C2556   1.373       .  A
C2549      H2562   1.083       .  S
C2549      N2550   1.354       .  A
N2550      C2551   1.353       .  A
N2550      C2703   1.436       .  S
C2551      H2552   1.081       .  S
C2553      H2563   1.082       .  S
C2553      N2554   1.353       .  A
N2554      C2555   1.361       .  A
N2554      C2668   1.434       .  S
C2555      H2561   1.081       .  S
C2556      H2558   1.081       .  S
C2556      N2557   1.352       .  A
N2557      C2559   1.351       .  A
N2557      C2684   1.421       .  S
C2559      H2560   1.085       .  S
C2564      C2566   1.532       .  S
C2564      C2568   1.526       .  S
C2564      C2567   1.552       .  S
C2564      C2604   1.501       .  S
C2565      C2569   1.540       .  S
C2565      C2571   1.526       .  S
C2565      C2570   1.537       .  S
C2565      C2591   1.503       .  S
C2566      C2574   1.377       .  A
C2566      C2569   1.387       .  A
C2567      C2578   1.385       .  A
C2567      C2570   1.395       .  A
C2568      C2582   1.379       .  A
C2568      C2571   1.377       .  A
C2569      C2572   1.376       .  A
C2570      C2576   1.374       .  A
C2571      C2579   1.377       .  A
C2572      H2585   1.082       .  S
C2572      N2573   1.352       .  A
N2573      C2574   1.352       .  A
N2573      C2655   1.425       .  S
C2574      H2575   1.080       .  S
C2576      H2586   1.081       .  S
C2576      N2577   1.352       .  A
N2577      C2578   1.354       .  A
N2577      C2623   1.430       .  S
C2578      H2584   1.080       .  S
C2579      H2581   1.080       .  S
C2579      N2580   1.357       .  A
N2580      C2582   1.355       .  A
N2580      C2639   1.432       .  S
C2582      H2583   1.084       .  S
C2587      C2588   1.408       .  A
C2587      C2592   1.393       .  A
C2587      H2594   1.084       .  S
C2588      C2589   1.427       .  A
C2589      C2596   1.528       .  S
C2589      C2590   1.391       .  A
C2590      C2591   1.402       .  A
C2590      H2595   1.084       .  S
C2591      C2592   1.416       .  A
C2592      C2593   1.523       .  S
C2593      F2597   1.384       .  S
C2593      F2598   1.379       .  S
C2593      F2599   1.383       .  S
C2596      F2600   1.385       .  S
C2596      F2601   1.378       .  S
C2596      F2602   1.381       .  S
C2603      C3010   1.396       .  A
C2603      C2608   1.390       .  A
C2603      H2610   1.081       .  S
C2604      C3009   1.396   1_554  A
C2604      C3011   1.423   1_554  A
C2605      C3018   1.527       .  S
C2605      C3010   1.423       .  A
C2605      C2606   1.392       .  A
C2606      C2607   1.404       .  A
C2606      H2611   1.081       .  S
C2607      C2608   1.432       .  A
C2608      C2609   1.531       .  S
C2609      F2613   1.385       .  S
C2609      F2614   1.375       .  S
C2609      F2615   1.383       .  S
C2612      C3011   1.527   1_554  S
C2612      F2616   1.376       .  S
C2612      F2617   1.383       .  S
C2612      F3024   1.384   1_554  S
F2618      C3018   1.384       .  S
C2619      C2620   1.409       .  A
C2619      C2624   1.400       .  A
C2619      H2626   1.084       .  S
C2620      C2621   1.413       .  A
C2621      C2628   1.515       .  S
C2621      C2622   1.409       .  A
C2622      C2623   1.404       .  A
C2622      H2627   1.083       .  S
C2623      C2624   1.405       .  A
C2624      C2625   1.515       .  S
C2625      F2629   1.385       .  S
C2625      F2630   1.383       .  S
C2625      F2631   1.382       .  S
C2628      F2632   1.383       .  S
C2628      F2633   1.381       .  S
C2628      F2634   1.385       .  S
C2635      C2636   1.411       .  A
C2635      C2640   1.405       .  A
C2635      H2642   1.082   1_565  S
C2636      C2637   1.429       .  A
C2637      C2644   1.521       .  S
C2637      C2638   1.409       .  A
C2638      C2639   1.397       .  A
C2638      H2643   1.083       .  S
C2639      C2640   1.407       .  A
C2640      C2641   1.516       .  S
C2641      F2646   1.383       .  S
C2641      F2647   1.382       .  S
C2644      F2648   1.382       .  S
C2644      F2649   1.384       .  S
C2644      F2650   1.386       .  S
C2651      C2652   1.397       .  A
C2651      C2656   1.395       .  A
C2651      H2658   1.084   1_565  S
C2652      C2653   1.413       .  A
C2653      C2660   1.518       .  S
C2653      C2654   1.405       .  A
C2654      C2655   1.400       .  A
C2654      H2659   1.083       .  S
C2655      C2656   1.413       .  A
C2656      C2657   1.517       .  S
C2657      F2662   1.380       .  S
C2657      F2663   1.382       .  S
C2660      F2664   1.383       .  S
C2660      F2665   1.379       .  S
C2660      F2666   1.384       .  S
C2667      C2668   1.396       .  A
C2667      C2672   1.403       .  A
C2667      H2674   1.082       .  S
C2668      C2669   1.410       .  A
C2669      C2676   1.512       .  S
C2669      C2670   1.413       .  A
C2670      C2671   1.407       .  A
C2670      H2675   1.082       .  S
C2671      C2672   1.426       .  A
C2672      C2673   1.523       .  S
C2673      F2677   1.385       .  S
C2673      F2678   1.382       .  S
C2673      F2679   1.383       .  S
C2676      F2680   1.383       .  S
C2676      F2681   1.383       .  S
C2676      F2682   1.383       .  S
C2683      C2684   1.397       .  A
C2683      C2688   1.402       .  A
C2683      H2690   1.083       .  S
C2684      C2685   1.406       .  A
C2685      C2692   1.508       .  S
C2685      C2686   1.391       .  A
C2686      C2687   1.392       .  A
C2686      H2691   1.082       .  S
C2687      C2688   1.432       .  A
C2689      F2693   1.384       .  S
C2689      F2694   1.383       .  S
C2689      F2695   1.380       .  S
C2692      F2696   1.382       .  S
C2692      F2697   1.380       .  S
C2692      F2698   1.386       .  S
C2699      C2700   1.415       .  A
C2699      C2704   1.412       .  A
C2699      H2706   1.083       .  S
C2700      C2701   1.431       .  A
C2701      C2702   1.410       .  A
C2702      C2703   1.396       .  A
C2702      H2707   1.083       .  S
C2703      C2704   1.406       .  A
C2704      C2705   1.516       .  S
C2705      F2709   1.384       .  S
C2705      F2710   1.383       .  S
C2705      F2711   1.384       .  S
C2708      F2712   1.382       .  S
C2708      F2713   1.384       .  S
C2708      F2714   1.385       .  S
C2715      C2716   1.400       .  A
C2715      C2720   1.410       .  A
C2715      H2722   1.083       .  S
C2716      C2717   1.410       .  A
C2717      C2724   1.516       .  S
C2717      C2718   1.408       .  A
C2718      C2719   1.411       .  A
C2718      H2723   1.083       .  S
C2719      C2720   1.425       .  A
C2720      C2721   1.520       .  S
C2721      F2725   1.382       .  S
C2721      F2726   1.384   1_655  S
C2724      F2728   1.383       .  S
C2724      F2729   1.383       .  S
C2724      F2730   1.385       .  S
C2731      C2732   1.401       .  A
C2731      C2736   1.397       .  A
C2731      H2738   1.083       .  S
C2732      C2733   1.414       .  A
C2733      C2740   1.516       .  S
C2733      C2734   1.402       .  A
C2734      C2735   1.399       .  A
C2734      H2739   1.083   1_655  S
C2735      C2736   1.409       .  A
C2736      C2737   1.519       .  S
C2737      F2741   1.384       .  S
C2737      F2742   1.383       .  S
C2737      F2743   1.384       .  S
C2740      F2744   1.381       .  S
C2740      F2745   1.383       .  S
C2740      F2746   1.385   1_655  S
C2747      C2748   1.397       .  A
C2747      C2752   1.401       .  A
C2747      H2754   1.082       .  S
C2748      C2749   1.437       .  A
C2749      C2756   1.530       .  S
C2749      C2750   1.404       .  A
C2750      C2751   1.393       .  A
C2750      H2755   1.082       .  S
C2751      C2752   1.410       .  A
C2752      C2753   1.511       .  S
C2753      F2757   1.385       .  S
C2753      F2758   1.380       .  S
C2753      F2759   1.383       .  S
C2756      F2760   1.377       .  S
C2756      F2762   1.387       .  S
C2763      C2764   1.410       .  A
C2763      C2768   1.400       .  A
C2763      H2770   1.084       .  S
C2764      C2765   1.407       .  A
C2765      C2772   1.512       .  S
C2765      C2766   1.405       .  A
C2766      C2767   1.402       .  A
C2766      H2771   1.082       .  S
C2767      C2768   1.408       .  A
C2768      C2769   1.521       .  S
C2769      F2773   1.384       .  S
C2769      F2774   1.382       .  S
C2769      F3181   1.381       .  S
F2775      C3175   1.381   1_554  S
C2779      C3186   1.399       .  A
C2779      C2784   1.391       .  A
C2779      H2786   1.084       .  S
C2780      C3185   1.399       .  A
C2780      C2781   1.413       .  A
C2781      C2788   1.522       .  S
C2781      C2782   1.401       .  A
C2782      C2783   1.403       .  A
C2782      H2787   1.083       .  S
C2783      C3190   1.403       .  A
C2783      N2856   1.415       .  S
C2784      C2785   1.513       .  S
C2784      C3189   1.404   1_556  A
C2785      F2789   1.385       .  S
C2785      F2790   1.382       .  S
C2785      F2791   1.383   1_556  S
C2788      F2792   1.380       .  S
C2788      F2793   1.382       .  S
C2788      F2794   1.384       .  S
C2795      C2796   1.408       .  A
C2795      C3206   1.398       .  A
C2795      H3208   1.082       .  S
C2796      C2797   1.428       .  A
C2797      C2804   1.521       .  S
C2797      C2798   1.407       .  A
C2798      C2799   1.397       .  A
C2798      H2803   1.084       .  S
C2799      C3206   1.407       .  A
C2800      C2801   1.515       .  S
C2800      C3201   1.397       .  A
C2800      C3205   1.407       .  A
C2801      F2805   1.385       .  S
C2801      F2806   1.379       .  S
C2801      F2807   1.382   1_556  S
H2802      C3201   1.082       .  S
C2804      F2808   1.383       .  S
C2811      C2812   1.409       .  A
C2811      C2816   1.395       .  A
C2811      H2818   1.081       .  S
C2812      C2813   1.417       .  A
C2813      C2820   1.523       .  S
C2813      C2814   1.391       .  A
C2814      C2815   1.411       .  A
C2814      H2819   1.081       .  S
C2815      C2816   1.420       .  A
C2816      C2817   1.525       .  S
C2817      F2821   1.384       .  S
C2817      F2822   1.376       .  S
C2817      F2823   1.383       .  S
C2820      F2824   1.377       .  S
C2820      F2825   1.383       .  S
C2820      F2826   1.385       .  S
C2827      C2828   1.395       .  A
C2827      C2832   1.389       .  A
C2827      H2834   1.082       .  S
C2828      C2829   1.419       .  A
C2829      C2836   1.523       .  S
C2829      C2830   1.390       .  A
C2830      C2831   1.402       .  A
C2830      H2835   1.080       .  S
C2831      C2832   1.434       .  A
C2832      C2833   1.532       .  S
C2833      F2837   1.384       .  S
C2833      F2838   1.375       .  S
C2833      F2839   1.384       .  S
C2836      F2840   1.382       .  S
C2836      F2841   1.377       .  S
C2836      F2842   1.383       .  S
C2843      C2845   1.542       .  S
C2843      C2847   1.538       .  S
C2843      C2846   1.521       .  S
C2843      C3218   1.511       .  S
C2844      C2848   1.533       .  S
C2844      C2850   1.526       .  S
C2844      C2849   1.540       .  S
C2844      C3234   1.501       .  S
C2845      C2853   1.374       .  A
C2846      C2857   1.364       .  A
C2847      C2861   1.380       .  A
C2848      C2851   1.379       .  A
C2849      C2855   1.382       .  A
C2850      C2858   1.370       .  A
C2851      H2864   1.082       .  S
N2852      C2853   1.349       .  A
N2852      C3173   1.423       .  S
C2853      H2854   1.082       .  S
C2855      H2865   1.079       .  S
C2855      N2856   1.350       .  A
C2857      H2863   1.085       .  S
C2858      H2860   1.080       .  S
N2859      C2861   1.358       .  A
N2859      C3205   1.427       .  S
C2861      H2862   1.085       .  S
C2866      C2868   1.553       .  S
C2866      C2870   1.517       .  S
C2866      C2869   1.521       .  S
C2866      C3237   1.502       .  S
C2867      C2871   1.550       .  S
C2867      C2873   1.548       .  S
C2867      C2872   1.532       .  S
C2867      C3221   1.511       .  S
C2868      C2876   1.380       .  A
C2868      C2871   1.401       .  A
C2869      C2880   1.371       .  A
C2869      C2872   1.378       .  A
C2870      C2884   1.371       .  A
C2870      C2873   1.376       .  A
C2871      C2874   1.384       .  A
C2872      C2878   1.374       .  A
C2873      C2881   1.390       .  A
C2874      H2887   1.079       .  S
C2874      N2875   1.359       .  A
N2875      C2876   1.355       .  A
N2875      C3122   1.438       .  S
C2876      H2877   1.083       .  S
C2878      H2888   1.081       .  S
C2878      N2879   1.356       .  A
N2879      C2880   1.354       .  A
N2879      C3138   1.426       .  S
C2880      H2886   1.086       .  S
C2881      H2883   1.083       .  S
C2881      N2882   1.356       .  A
N2882      C2884   1.348       .  A
N2882      C3157   1.429       .  S
C2884      H2885   1.080       .  S
O2889      C2897   1.265       .  A
O2890      C2898   1.275       .  A
O2890     Co2910   2.066       .  S
O2891      C2899   1.252       .  A
O2891     Co2911   1.960       .  S
O2892      C2900   1.263       .  A
O2893      C2899   1.267       .  A
O2895      C2898   1.230       .  A
O2896      C2897   1.263       .  A
O2896     Co2911   1.963       .  S
C2897      C3202   1.489       .  S
C2898      C3170   1.468       .  S
C2899      C3077   1.485       .  S
O2901      C2914   1.255       .  A
O2902     Co2910   2.009       .  S
O2903      C2916   1.266   1_545  A
O2904      C2917   1.304       .  A
O2904     Co2912   2.089       .  S
O2905      C2917   1.269   1_545  A
O2906      C2916   1.261       .  A
O2906     Co2909   1.982       .  S
O2907      C2914   1.237       .  A
O2907     Co2912   1.941       .  S
O2908      C2915   1.285       .  A
O2908     Co2911   2.079       .  S
Co2911     O2913   2.042       .  S
C2914      C3186   1.451       .  S
C2916      C3106   1.507       .  S
C2917      C3093   1.472       .  S
O2918      C2926   1.227       .  A
O2919      C2927   1.257       .  A
O2919     Co2939   1.961       .  S
O2920      C2928   1.265       .  A
O2920     Co2940   2.028       .  S
O2921      C2929   1.291   1_665  A
O2921     Co2941   2.099       .  S
O2922      C2928   1.250       .  A
O2923     Co2938   1.986   1_545  S
O2924      C2927   1.270       .  A
O2925      C2926   1.280       .  A
O2925     Co2940   2.074       .  S
C2926      C3154   1.479       .  S
C2927      C3125   1.495       .  S
C2928      C3026   1.477       .  S
O2930      C2943   1.237   1_455  A
O2931     Co2939   2.073       .  S
O2932      C2945   1.270   1_545  A
O2933      C2946   1.256       .  A
O2933     Co2941   1.969       .  S
O2934      C2946   1.271   1_545  A
O2935      C2945   1.304       .  A
O2935     Co2938   2.098       .  S
O2936      C2943   1.256       .  A
O2936     Co2941   1.993       .  S
O2937      C2944   1.274       .  A
O2937     Co2940   2.016       .  S
Co2940     O2942   2.019       .  S
C2943      C3141   1.449       .  S
C2945      C3058   1.460       .  S
C2946      C3042   1.499       .  S
C2947      C2949   1.543       .  S
C2947      C2951   1.522       .  S
C2947      C2950   1.552       .  S
C2947      C2994   1.501       .  S
C2948      C2952   1.550       .  S
C2948      C2954   1.520       .  S
C2948      C2953   1.532       .  S
C2948      C3013   1.502       .  S
C2949      C2957   1.384       .  A
C2949      C2952   1.403       .  A
C2950      C2961   1.387       .  A
C2950      C2953   1.389       .  A
C2951      C2965   1.379       .  A
C2951      C2954   1.366       .  A
C2952      C2955   1.384       .  A
C2953      C2959   1.372       .  A
C2954      C2962   1.376       .  A
C2955      H2968   1.083       .  S
C2955      N2956   1.354       .  A
N2956      C2957   1.353       .  A
N2956      C3109   1.438       .  S
C2957      H2958   1.081       .  S
C2959      H2969   1.083       .  S
C2959      N2960   1.353       .  A
N2960      C2961   1.362       .  A
N2960      C3074   1.435       .  S
C2961      H2967   1.081       .  S
C2962      H2964   1.081       .  S
C2962      N2963   1.354       .  A
N2963      C2965   1.353       .  A
N2963      C3090   1.426       .  S
C2965      H2966   1.084       .  S
C2970      C2972   1.533       .  S
C2970      C2974   1.526       .  S
C2970      C2973   1.552       .  S
C2970      C3010   1.501       .  S
C2971      C2975   1.541       .  S
C2971      C2977   1.528       .  S
C2971      C2976   1.537       .  S
C2971      C2997   1.503       .  S
C2972      C2980   1.378       .  A
C2972      C2975   1.387       .  A
C2973      C2984   1.385       .  A
C2973      C2976   1.395       .  A
C2974      C2988   1.379       .  A
C2974      C2977   1.377       .  A
C2975      C2978   1.377       .  A
C2976      C2982   1.374       .  A
C2977      C2985   1.378       .  A
C2978      H2991   1.082       .  S
C2978      N2979   1.352       .  A
N2979      C2980   1.352       .  A
N2979      C3061   1.426       .  S
C2980      H2981   1.080       .  S
C2982      H2992   1.081       .  S
C2982      N2983   1.352       .  A
N2983      C2984   1.354       .  A
N2983      C3029   1.430       .  S
C2984      H2990   1.080       .  S
C2985      H2987   1.080       .  S
C2985      N2986   1.358       .  A
N2986      C2988   1.355       .  A
N2986      C3045   1.434       .  S
C2988      H2989   1.084       .  S
C2993      C2994   1.408       .  A
C2993      C2998   1.393       .  A
C2993      H3000   1.084       .  S
C2994      C2995   1.427       .  A
C2995      C3002   1.529       .  S
C2995      C2996   1.391       .  A
C2996      C2997   1.402       .  A
C2996      H3001   1.084       .  S
C2997      C2998   1.416       .  A
C2998      C2999   1.523       .  S
C2999      F3003   1.384       .  S
C2999      F3004   1.379       .  S
C2999      F3005   1.383       .  S
C3002      F3006   1.385       .  S
C3002      F3007   1.379       .  S
C3002      F3008   1.381       .  S
C3009      C3014   1.390       .  A
C3009      H3016   1.081   1_556  S
C3011      C3012   1.391       .  A
C3012      C3013   1.403       .  A
C3012      H3017   1.081       .  S
C3013      C3014   1.431       .  A
C3014      C3015   1.531       .  S
C3015      F3019   1.385       .  S
C3015      F3020   1.375       .  S
C3015      F3021   1.384       .  S
C3018      F3022   1.377       .  S
C3018      F3023   1.383       .  S
C3025      C3026   1.409       .  A
C3025      C3030   1.400       .  A
C3025      H3032   1.084       .  S
C3026      C3027   1.413       .  A
C3027      C3034   1.515       .  S
C3027      C3028   1.409       .  A
C3028      C3029   1.404       .  A
C3028      H3033   1.083       .  S
C3029      C3030   1.405       .  A
C3030      C3031   1.515       .  S
C3031      F3035   1.386       .  S
C3031      F3036   1.383       .  S
C3031      F3037   1.382       .  S
C3034      F3038   1.382       .  S
C3034      F3039   1.381       .  S
C3034      F3040   1.385       .  S
C3041      C3042   1.411       .  A
C3041      C3046   1.406       .  A
C3041      H3048   1.082   1_565  S
C3042      C3043   1.430       .  A
C3043      C3050   1.521       .  S
C3043      C3044   1.409       .  A
C3044      C3045   1.397       .  A
C3044      H3049   1.083       .  S
C3045      C3046   1.408       .  A
C3046      C3047   1.516       .  S
C3047      F3052   1.383       .  S
C3047      F3053   1.382       .  S
C3050      F3054   1.382       .  S
C3050      F3055   1.384       .  S
C3050      F3056   1.386       .  S
C3057      C3058   1.397       .  A
C3057      C3062   1.396       .  A
C3057      H3064   1.084   1_565  S
C3058      C3059   1.413       .  A
C3059      C3066   1.518       .  S
C3059      C3060   1.406       .  A
C3060      C3061   1.401       .  A
C3060      H3065   1.083       .  S
C3061      C3062   1.413       .  A
C3062      C3063   1.517       .  S
C3063      F3068   1.380       .  S
C3063      F3069   1.382       .  S
C3066      F3070   1.383       .  S
C3066      F3071   1.379       .  S
C3066      F3072   1.384       .  S
C3073      C3074   1.396       .  A
C3073      C3078   1.403       .  A
C3073      H3080   1.082       .  S
C3074      C3075   1.410       .  A
C3075      C3082   1.512       .  S
C3075      C3076   1.413       .  A
C3076      C3077   1.407       .  A
C3076      H3081   1.082       .  S
C3077      C3078   1.426       .  A
C3078      C3079   1.523       .  S
C3079      F3083   1.385       .  S
C3079      F3084   1.382       .  S
C3079      F3085   1.383       .  S
C3082      F3086   1.383       .  S
C3082      F3087   1.383       .  S
C3082      F3088   1.383       .  S
C3089      C3090   1.399       .  A
C3089      C3094   1.404       .  A
C3089      H3096   1.083       .  S
C3090      C3091   1.407       .  A
C3091      C3098   1.515       .  S
C3091      C3092   1.400       .  A
C3092      C3093   1.404       .  A
C3092      H3097   1.083       .  S
C3093      C3094   1.421       .  A
C3095      F3099   1.385       .  S
C3095      F3100   1.383       .  S
C3095      F3101   1.380       .  S
C3098      F3102   1.383       .  S
C3098      F3103   1.382       .  S
C3098      F3104   1.385       .  S
C3105      C3106   1.416       .  A
C3105      C3110   1.412       .  A
C3105      H3112   1.083       .  S
C3106      C3107   1.431       .  A
C3107      C3108   1.410       .  A
C3108      C3109   1.397       .  A
C3108      H3113   1.083       .  S
C3109      C3110   1.407       .  A
C3110      C3111   1.516       .  S
C3111      F3115   1.384       .  S
C3111      F3116   1.383       .  S
C3111      F3117   1.384       .  S
C3114      F3118   1.382       .  S
C3114      F3119   1.384       .  S
C3114      F3120   1.385       .  S
C3121      C3122   1.399       .  A
C3121      C3126   1.410       .  A
C3121      H3128   1.083       .  S
C3122      C3123   1.410       .  A
C3123      C3130   1.516       .  S
C3123      C3124   1.409       .  A
C3124      C3125   1.411       .  A
C3124      H3129   1.083       .  S
C3125      C3126   1.425       .  A
C3126      C3127   1.520       .  S
C3127      F3131   1.382       .  S
C3127      F3132   1.384   1_655  S
C3130      F3134   1.383       .  S
C3130      F3135   1.383       .  S
C3130      F3136   1.385       .  S
C3137      C3138   1.401       .  A
C3137      C3142   1.396       .  A
C3137      H3144   1.083       .  S
C3138      C3139   1.413       .  A
C3139      C3146   1.516       .  S
C3139      C3140   1.401       .  A
C3140      C3141   1.399       .  A
C3140      H3145   1.083   1_655  S
C3141      C3142   1.409       .  A
C3142      C3143   1.520       .  S
C3143      F3147   1.384       .  S
C3143      F3148   1.382       .  S
C3143      F3149   1.384       .  S
C3146      F3150   1.381       .  S
C3146      F3151   1.383       .  S
C3146      F3152   1.385   1_655  S
C3153      C3154   1.396       .  A
C3153      C3158   1.401       .  A
C3153      H3160   1.082       .  S
C3154      C3155   1.437       .  A
C3155      C3162   1.530       .  S
C3155      C3156   1.405       .  A
C3156      C3157   1.394       .  A
C3156      H3161   1.082       .  S
C3157      C3158   1.411       .  A
C3158      C3159   1.512       .  S
C3159      F3163   1.385       .  S
C3159      F3164   1.380       .  S
C3159      F3165   1.383       .  S
C3162      F3166   1.377       .  S
C3162      F3168   1.387       .  S
C3169      C3170   1.410       .  A
C3169      C3174   1.400       .  A
C3169      H3176   1.084       .  S
C3170      C3171   1.407       .  A
C3171      C3178   1.512       .  S
C3171      C3172   1.405       .  A
C3172      C3173   1.401       .  A
C3172      H3177   1.082       .  S
C3173      C3174   1.408       .  A
C3174      C3175   1.520       .  S
C3175      F3179   1.384       .  S
C3175      F3180   1.382       .  S
C3185      C3190   1.388       .  A
C3185      H3192   1.084       .  S
C3186      C3187   1.415       .  A
C3187      C3194   1.523       .  S
C3187      C3188   1.403   1_556  A
C3188      C3189   1.402       .  A
C3188      H3193   1.083       .  S
C3190      C3191   1.514       .  S
C3191      F3195   1.385       .  S
C3191      F3196   1.382       .  S
C3191      F3197   1.382       .  S
C3194      F3198   1.381       .  S
C3194      F3199   1.382   1_556  S
C3194      F3200   1.384   1_556  S
C3201      C3202   1.408       .  A
C3202      C3203   1.429       .  A
C3203      C3210   1.521       .  S
C3203      C3204   1.407       .  A
C3204      C3205   1.397       .  A
C3204      H3209   1.084       .  S
C3206      C3207   1.515       .  S
C3207      F3211   1.385       .  S
C3207      F3212   1.380       .  S
C3207      F3213   1.382       .  S
C3210      F3214   1.383       .  S
C3217      C3218   1.409       .  A
C3217      C3222   1.395       .  A
C3217      H3224   1.081       .  S
C3218      C3219   1.417       .  A
C3219      C3226   1.523       .  S
C3219      C3220   1.391       .  A
C3220      C3221   1.411       .  A
C3220      H3225   1.081       .  S
C3221      C3222   1.421       .  A
C3222      C3223   1.525       .  S
C3223      F3227   1.384       .  S
C3223      F3228   1.376       .  S
C3223      F3229   1.383       .  S
C3226      F3230   1.376       .  S
C3226      F3231   1.383       .  S
C3226      F3232   1.385       .  S
C3233      C3234   1.396       .  A
C3233      C3238   1.390       .  A
C3233      H3240   1.082       .  S
C3234      C3235   1.418       .  A
C3235      C3242   1.523       .  S
C3235      C3236   1.390       .  A
C3236      C3237   1.402       .  A
C3236      H3241   1.080       .  S
C3237      C3238   1.434       .  A
C3238      C3239   1.533       .  S
C3239      F3243   1.384       .  S
C3239      F3244   1.375       .  S
C3239      F3245   1.384       .  S
C3242      F3246   1.382       .  S
C3242      F3247   1.377       .  S
C3242      F3248   1.383       .  S
