geometry optimzed in LAMMPS
_audit_creation_date              2020-11-30 
_audit_creation_method            'lammps2cif' 
_symmetry_space_group_name_H-M    'P1' 
_symmetry_Int_Tables_number       1 
_symmetry_cell_setting            triclinic 
loop_ 
_symmetry_equiv_pos_as_xyz 
  x,y,z 
_cell_length_a                    48.81531709 
_cell_length_b                    48.83059367933287 
_cell_length_c                    61.26000839223462 
_cell_angle_alpha                 89.98071941609545 
_cell_angle_beta                  90.021955850603 
_cell_angle_gamma                 120.06186042220692 
loop_ 
_atom_site_label 
_atom_site_type_symbol 
_atom_site_fract_x 
_atom_site_fract_y 
_atom_site_fract_z 
_atom_site_charge 
C1          C  0.30733642  0.00685298  0.71952579     0.06100
C2          C  0.33619857  0.01694342  0.70885654    -0.10000
C3          C  0.36380576  0.04321683  0.71667130     0.03600
C4          C  0.36265654  0.05943264  0.73514381    -0.08600
C5          C  0.33390409  0.04932702  0.74592195     0.06100
C6          C  0.30618167  0.02303054  0.73810906    -0.08000
H7          H  0.33722135  0.00425076  0.69463844     0.11700
H8          H  0.38411725  0.07972401  0.74120047     0.09200
H9          H  0.28393701  0.01498060  0.74658657     0.09100
C10         C  0.00337793  0.11286103  0.68110826     0.06100
C11         C  0.47508262  0.10072433  0.69289144    -0.10000
C12         C  0.44755839  0.07440871  0.68500765     0.03600
C13         C  0.44824815  0.06009853  0.66540973    -0.08600
C14         C  0.47643398  0.07215976  0.65356729     0.06100
C15         C  0.00405723  0.09856364  0.66140096    -0.08000
H16         H  0.47433672  0.11207219  0.70791977     0.11700
H17         H  0.42682376  0.03984310  0.65927143     0.09200
H18         H  0.02582404  0.10817327  0.65208000     0.09100
C19         C  0.27815861  0.44942644  0.84560156     0.06100
C20         C  0.29551880  0.43832081  0.85700653    -0.10000
C21         C  0.29676573  0.41199423  0.84927335     0.03600
C22         C  0.28074728  0.39676923  0.83014278    -0.08600
C23         C  0.26346324  0.40786259  0.81868539     0.06100
C24         C  0.26211371  0.43419168  0.82640235    -0.08000
H25         H  0.30823279  0.45028051  0.87172937     0.11700
H26         H  0.28181080  0.37641503  0.82415697     0.09200
H27         H  0.24893560  0.44295881  0.81740691     0.09100
C28         C  0.36542144  0.34180896  0.88636187     0.06100
C29         C  0.38022496  0.35629636  0.90609083    -0.10000
C30         C  0.37832334  0.38229749  0.91394530     0.03600
C31         C  0.36151815  0.39363724  0.90215917    -0.08600
C32         C  0.34674552  0.37918974  0.88251945     0.06100
C33         C  0.34868978  0.35332041  0.87459953    -0.05000
H34         H  0.39304743  0.34733435  0.91530425     0.11700
H35         H  0.36000483  0.41370929  0.90822595     0.09200
H36         H  0.33696656  0.34200428  0.85945636     0.09100
C37         C  0.44486641  0.28314094  0.51268340     0.06100
C38         C  0.46352099  0.27303814  0.52353398    -0.10000
C39         C  0.46616978  0.24778264  0.51512836     0.03600
C40         C  0.45027160  0.23266440  0.49596679    -0.08600
C41         C  0.43168426  0.24272702  0.48514816     0.06100
C42         C  0.42893225  0.26795735  0.49346473    -0.08000
H43         H  0.47616064  0.28496230  0.53828448     0.11700
H44         H  0.45236154  0.21311211  0.48948944     0.09200
H45         H  0.41477054  0.27595930  0.48489409     0.09100
C46         C  0.04781596  0.21679054  0.57839779     0.06100
C47         C  0.04906842  0.19045775  0.57057243    -0.10000
C48         C  0.03438673  0.17637475  0.55074599     0.03600
C49         C  0.01842444  0.18866105  0.53886096    -0.08600
C50         C  0.01727462  0.21498986  0.54677659     0.06100
C51         C  0.03200379  0.22904624  0.56647683    -0.08000
H52         H  0.06110947  0.18079580  0.57995906     0.11700
H53         H  0.50657304  0.17752475  0.52371400     0.09200
H54         H  0.03092702  0.24932848  0.57261599     0.09100
C55         C  0.33739091  0.28226756  0.01424875     0.06100
C56         C  0.33840086  0.26723715  0.99498169    -0.10000
C57         C  0.31065239  0.24125632  0.98685889     0.03600
C58         C  0.28202563  0.23037491  0.99795903    -0.08600
C59         C  0.28098965  0.24538192  0.01711144     0.06100
C60         C  0.30861914  0.27131516  0.02527049    -0.08000
H61         H  0.36054967  0.27589384  0.98625389     0.11700
H62         H  0.26055696  0.21035048  0.99164964     0.09200
H63         H  0.30766248  0.28313452  0.03999637     0.09100
C64         C  0.14046646  0.17680058  0.05153479     0.06100
C65         C  0.16912090  0.18777445  0.04034169    -0.10000
C66         C  0.19681791  0.21376637  0.04838944     0.03600
C67         C  0.19593917  0.22879464  0.06757851    -0.08600
C68         C  0.16741152  0.21785682  0.07881582     0.06100
C69         C  0.13962400  0.19187431  0.07080079    -0.08000
H70         H  0.16995539  0.17587669  0.02562223     0.11700
H71         H  0.21745451  0.24881586  0.07383642     0.09200
H72         H  0.11757516  0.18315863  0.07967015     0.09100
C73         C  0.47467034  0.34204066  0.38503698     0.06100
C74         C  0.50336412  0.35311600  0.37390852    -0.10000
C75         C  0.03082854  0.37944023  0.38186134     0.03600
C76         C  0.02970872  0.39467862  0.40084894    -0.08600
C77         C  0.50111714  0.38355003  0.41199634     0.06100
C78         C  0.47355546  0.35724846  0.40412126    -0.08000
H79         H  0.50439719  0.34110530  0.35930851     0.11700
H80         H  0.05106847  0.41498112  0.40702148     0.09200
H81         H  0.45144840  0.34844492  0.41293357     0.09100
C82         C  0.17115654  0.44807263  0.34758788     0.06100
C83         C  0.17200474  0.43288392  0.32836936    -0.10000
C84         C  0.14418580  0.40675674  0.32050328     0.03600
C85         C  0.11574254  0.39586012  0.33176917    -0.08600
C86         C  0.11492282  0.41106317  0.35083542     0.06100
C87         C  0.14255318  0.43713862  0.35879210    -0.08000
H88         H  0.19400637  0.44160233  0.31944166     0.11700
H89         H  0.09420884  0.37576395  0.32559367     0.09200
H90         H  0.14170058  0.44914574  0.37344906     0.09100
C91         C  0.11023847  0.11628988  0.18039867     0.06100
C92         C  0.12757871  0.10523048  0.19192412    -0.10000
C93         C  0.12963311  0.07945561  0.18389787     0.03600
C94         C  0.11436410  0.06467951  0.16449999    -0.08600
C95         C  0.09709381  0.07567159  0.15299399     0.06100
C96         C  0.09495962  0.10146378  0.16090495    -0.08000
H97         H  0.13986524  0.11695702  0.20682101     0.11700
H98         H  0.11613308  0.04481877  0.15827756     0.09200
H99         H  0.08187647  0.11022386  0.15178525     0.09100
C100        C  0.21500639  0.05165843  0.24568569     0.06100
C101        C  0.19762984  0.06265546  0.23433702    -0.10000
C102        C  0.18204204  0.04781158  0.21505383     0.03600
C103        C  0.18387565  0.02194474  0.20696230    -0.08600
C104        C  0.20132432  0.01083221  0.21829761     0.06100
C105        C  0.21693990  0.02574858  0.23771253    -0.08000
H106        H  0.19600090  0.08257307  0.24061090     0.11700
H107        H  0.17134053  0.01019274  0.19214164     0.09200
H108        H  0.23009410  0.01696907  0.24672043     0.09100
C109        C  0.01798008  0.29865344  0.84650490     0.06100
C110        C  0.02868308  0.32741219  0.85744758    -0.10000
C111        C  0.05470139  0.35501846  0.84936914     0.03600
C112        C  0.07002281  0.35392891  0.83036511    -0.08600
C113        C  0.05930132  0.32520435  0.81939767     0.06100
C114        C  0.03327788  0.29755022  0.82745991    -0.08000
H115        H  0.01663839  0.32836477  0.87205647     0.11700
H116        H  0.09014248  0.37535488  0.82410733     0.09200
H117        H  0.02475986  0.27535177  0.81882414     0.09100
C118        C  0.12462077  0.99435225  0.88553405     0.06100
C119        C  0.11019064  0.99493045  0.90519529    -0.10000
C120        C  0.08398409  0.46717817  0.91305102     0.03600
C121        C  0.07235807  0.43892774  0.90134713    -0.08600
C122        C  0.08678236  0.43836712  0.88176787     0.06100
C123        C  0.11285949  0.46603859  0.87383642    -0.08000
H124        H  0.11941742  0.01676685  0.91439027     0.11700
H125        H  0.05217250  0.41743451  0.90746919     0.09200
H126        H  0.12422853  0.46543633  0.85877907     0.09100
C127        C  0.39270300  0.37118102  0.65202414     0.06100
C128        C  0.36609251  0.37220152  0.65956387    -0.10000
C129        C  0.35131671  0.35682016  0.67906827     0.03600
C130        C  0.36311187  0.34038540  0.69086530    -0.08600
C131        C  0.38964042  0.33942714  0.68323429     0.06100
C132        C  0.40443715  0.35482757  0.66387293    -0.08000
H133        H  0.35684726  0.38469455  0.65026056     0.11700
H134        H  0.35151115  0.32812597  0.70579944     0.09200
H135        H  0.42496450  0.35397782  0.65799490     0.09100
C136        C  0.45926267  0.27007160  0.71996694     0.06100
C137        C  0.44384864  0.25417020  0.73914174    -0.10000
C138        C  0.41764310  0.25581915  0.74674019     0.03600
C139        C  0.40690902  0.27336176  0.73525999    -0.08600
C140        C  0.42239263  0.28934660  0.71620019     0.06100
C141        C  0.44856499  0.28774930  0.70852000    -0.08000
H142        H  0.45228790  0.24072486  0.74815642     0.11700
H143        H  0.38660804  0.27461365  0.74115449     0.09200
H144        H  0.46065267  0.30034926  0.69379736     0.09100
C145        C  0.18586179  0.12975608  0.51446825     0.06100
C146        C  0.19676822  0.15834839  0.52571393    -0.10000
C147        C  0.22282432  0.18603621  0.51773571     0.03600
C148        C  0.23797608  0.18521549  0.49862045    -0.08600
C149        C  0.22709665  0.15675783  0.48736401     0.06100
C150        C  0.20107329  0.12895329  0.49527393    -0.08000
H151        H  0.18472834  0.15915928  0.54036595     0.11700
H152        H  0.25800282  0.20675449  0.49239435     0.09200
H153        H  0.19235885  0.10696449  0.48633509     0.09100
C154        C  0.29154174  0.32661672  0.55180124     0.06100
C155        C  0.28044670  0.29796414  0.54059014    -0.10000
C156        C  0.25467659  0.27024140  0.54880261     0.03600
C157        C  0.23993519  0.27104540  0.56812531    -0.08600
C158        C  0.25088831  0.29951997  0.57937326     0.06100
C159        C  0.27676149  0.32737773  0.57127141    -0.08000
H160        H  0.29202843  0.29716695  0.52569384     0.11700
H161        H  0.21999354  0.24950346  0.57443146     0.09200
H162        H  0.28545132  0.34942723  0.58012226     0.09100
C163        C  0.18609414  0.02551634  0.01396647     0.06100
C164        C  0.20105883  0.04063795  0.99441945    -0.10000
C165        C  0.22698367  0.03848491  0.98668289     0.03600
C166        C  0.23784526  0.02126228  0.99837892    -0.08600
C167        C  0.22293794  0.00612293  0.01777130     0.06100
C168        C  0.19710689  0.00823684  0.02563404    -0.08000
H169        H  0.19241168  0.05372269  0.98519109     0.11700
H170        H  0.25780243  0.01950525  0.99233427     0.09200
H171        H  0.18537329  0.49613808  0.04057854     0.09100
C172        C  0.29242911  0.43561718  0.05284002     0.06100
C173        C  0.27819373  0.42086912  0.07258933    -0.10000
C174        C  0.25263604  0.42320913  0.08073820     0.03600
C175        C  0.24133372  0.44022824  0.06926736    -0.08600
C176        C  0.25550215  0.45496350  0.04960515     0.06100
C177        C  0.28102672  0.45266221  0.04130812    -0.08000
H178        H  0.28714234  0.40791796  0.08166798     0.11700
H179        H  0.22159143  0.44207149  0.07566107     0.09200
H180        H  0.29225730  0.46447919  0.02617430     0.09100
C181        C  0.12510113  0.10204159  0.38539160     0.06100
C182        C  0.11340456  0.11865194  0.37369026    -0.10000
C183        C  0.08685956  0.11954984  0.38139027     0.03600
C184        C  0.07203409  0.10393581  0.40070410    -0.08600
C185        C  0.08380063  0.08747918  0.41240378     0.06100
C186        C  0.11033012  0.08650205  0.40479307    -0.08000
H187        H  0.12509111  0.13109421  0.35882749     0.11700
H188        H  0.05152554  0.10474088  0.40667251     0.09200
H189        H  0.11958145  0.07393554  0.41401126     0.09100
C190        C  0.01772814  0.19021900  0.34629298     0.06100
C191        C  0.03295324  0.20632403  0.32710348    -0.10000
C192        C  0.05883376  0.20439925  0.31907225     0.03600
C193        C  0.06943816  0.18645214  0.33016074    -0.08600
C194        C  0.05421991  0.17036517  0.34924759     0.06100
C195        C  0.02836084  0.17217909  0.35733756    -0.08000
H196        H  0.02454600  0.22002032  0.31837669     0.11700
H197        H  0.08945487  0.18496143  0.32393181     0.09200
H198        H  0.01642225  0.15941402  0.37204981     0.09100
C199        C  0.45666290  0.16199623  0.21759013     0.06100
C200        C  0.44545897  0.13348558  0.20620700    -0.10000
C201        C  0.41928534  0.10584571  0.21408771     0.03600
C202        C  0.40418337  0.10658258  0.23325205    -0.08600
C203        C  0.41527986  0.13492716  0.24470356     0.06100
C204        C  0.44154751  0.16272609  0.23690253    -0.08000
H205        H  0.45738515  0.13268963  0.19148883     0.11700
H206        H  0.38403418  0.08504982  0.23937184     0.09200
H207        H  0.45043257  0.18463754  0.24595628     0.09100
C208        C  0.35139715  0.46541099  0.18016263     0.06100
C209        C  0.36219828  0.49415090  0.19117002    -0.10000
C210        C  0.38826553  0.02174136  0.18311211     0.03600
C211        C  0.40359141  0.02068988  0.16414668    -0.08600
C212        C  0.39278042  0.49207240  0.15309535     0.06100
C213        C  0.36667936  0.46437698  0.16106928    -0.08000
H214        H  0.35012230  0.49512869  0.20575246     0.11700
H215        H  0.42371385  0.04213745  0.15790435     0.09200
H216        H  0.35808383  0.44225024  0.15232820     0.09100
C217        C  0.25865703  0.32337690  0.32118867     0.06100
C218        C  0.27611925  0.35186999  0.33247106    -0.10000
C219        C  0.29234045  0.35288443  0.35152406     0.03600
C220        C  0.29105647  0.32536998  0.35945563    -0.08600
C221        C  0.27356038  0.29671157  0.34824790     0.06100
C222        C  0.25729004  0.29570642  0.32907096    -0.08000
H223        H  0.27741411  0.37331229  0.32628400     0.11700
H224        H  0.30410243  0.32638637  0.37406096     0.09200
H225        H  0.24415538  0.27369782  0.32013217     0.09100
C226        C  0.36489531  0.49350638  0.38519637     0.06100
C227        C  0.38107561  0.99464499  0.40438935    -0.10000
C228        C  0.37947783  0.46702218  0.41245070     0.03600
C229        C  0.36176052  0.43836346  0.40140867    -0.08600
C230        C  0.34553593  0.43721451  0.38232592     0.06100
C231        C  0.34709205  0.46474828  0.37416976    -0.08000
H232        H  0.39453414  0.01680219  0.41312150     0.11700
H233        H  0.36042936  0.41696948  0.40772859     0.09200
H234        H  0.33416274  0.46371106  0.35949720     0.09100
C235        C  0.21050311  0.13160254  0.74724563     0.06100
C236        C  0.19271957  0.10292095  0.73616018    -0.10000
C237        C  0.17683403  0.10189947  0.71688716     0.03600
C238        C  0.17872929  0.12953929  0.70864522    -0.08600
C239        C  0.19651238  0.15826151  0.71969800     0.06100
C240        C  0.21239304  0.15929825  0.73902786    -0.08000
H241        H  0.19124400  0.08147896  0.74250460     0.11700
H242        H  0.16617233  0.12864127  0.69380644     0.09200
H243        H  0.22592884  0.18147652  0.74772109     0.09100
C244        C  0.10912907  0.46302781  0.67973184     0.06100
C245        C  0.12506374  0.49113261  0.69175249    -0.10000
C246        C  0.12669912  0.01883882  0.68387926     0.03600
C247        C  0.11233757  0.01850766  0.66404743    -0.08600
C248        C  0.09635913  0.49049242  0.65200259     0.06100
C249        C  0.09481104  0.46272491  0.65979344    -0.08000
H250        H  0.13651005  0.49154907  0.70702678     0.11700
H251        H  0.11363191  0.04000652  0.65799042     0.09200
H252        H  0.08265621  0.44106213  0.65036349     0.09100
C253        C  0.33605885  0.02309687  0.51348897     0.06100
C254        C  0.30730637  0.00513848  0.52452741    -0.10000
C255        C  0.27958802  0.00315363  0.51629025     0.03600
C256        C  0.28057764  0.01910345  0.49707503    -0.08600
C257        C  0.30923765  0.03700055  0.48601452     0.06100
C258        C  0.33700914  0.03904177  0.49421699    -0.08000
H259        H  0.30641671  0.49240024  0.53926432     0.11700
H260        H  0.25906598  0.01743078  0.49067432     0.09200
H261        H  0.35915409  0.05259802  0.48548358     0.09100
C262        C  0.13904246  0.43166496  0.55058183     0.06100
C263        C  0.16774020  0.44897182  0.53935958    -0.10000
C264        C  0.19526886  0.45039002  0.54744951     0.03600
C265        C  0.19418629  0.43451850  0.56671461    -0.08600
C266        C  0.16564258  0.41728902  0.57801880     0.06100
C267        C  0.13801056  0.41581926  0.56996501    -0.08000
H268        H  0.16874859  0.46166544  0.52457170     0.11700
H269        H  0.21558156  0.43580157  0.57299912     0.09200
H270        H  0.11594923  0.40277476  0.57886797     0.09100
C271        C  0.30537960  0.26551960  0.21764331     0.06100
C272        C  0.30433022  0.24940104  0.23687884    -0.10000
C273        C  0.33184814  0.25032367  0.24459230     0.03600
C274        C  0.36024627  0.26720517  0.23310371    -0.08600
C275        C  0.36131588  0.28335365  0.21400216     0.06100
C276        C  0.33393515  0.28253330  0.20623918    -0.08000
H277        H  0.28238762  0.23664163  0.24595198     0.11700
H278        H  0.38157356  0.26811864  0.23917172     0.09200
H279        H  0.33496528  0.29549045  0.19158568     0.09100
C280        C  0.00221858  0.35664459  0.18076592     0.06100
C281        C  0.47326032  0.33807588  0.19140825    -0.10000
C282        C  0.44572282  0.33651720  0.18321983     0.03600
C283        C  0.44707483  0.35342474  0.16443592    -0.08600
C284        C  0.47595798  0.37186614  0.15376738     0.06100
C285        C  0.00356010  0.37354185  0.16192818    -0.08000
H286        H  0.47209168  0.32461822  0.20581836     0.11700
H287        H  0.42568505  0.35204454  0.15805090     0.09200
H288        H  0.02587648  0.38752852  0.15347028     0.09100
C289        C  0.44101697  0.13020764  0.01561754     0.06100
C290        C  0.45751261  0.15877965  0.02711559    -0.10000
C291        C  0.45884111  0.18622897  0.01892985     0.03600
C292        C  0.44365136  0.18516970  0.99933871    -0.08600
C293        C  0.42722741  0.15677863  0.98777313     0.06100
C294        C  0.42584225  0.12923204  0.99590962    -0.08000
H295        H  0.46979981  0.15980131  0.04211601     0.11700
H296        H  0.44496881  0.20652399  0.99295011     0.09200
H297        H  0.41347531  0.10730349  0.98678662     0.09100
C298        C  0.03406602  0.32804052  0.05079806     0.06100
C299        C  0.01490473  0.29894155  0.04043751    -0.10000
C300        C  0.01258826  0.27123265  0.04898930     0.03600
C301        C  0.02935722  0.27256406  0.06783946    -0.08600
C302        C  0.04843088  0.30152767  0.07823055     0.06100
C303        C  0.05089529  0.32932102  0.06969714    -0.08000
H304        H  0.00148104  0.29778903  0.02601075     0.11700
H305        H  0.02735438  0.25105262  0.07451608     0.09200
H306        H  0.06529593  0.35170628  0.07797234     0.09100
C307        C  0.16877072  0.18764843  0.84633183     0.06100
C308        C  0.13992494  0.16957994  0.85716858    -0.10000
C309        C  0.11241535  0.16799183  0.84896758     0.03600
C310        C  0.11362514  0.18442045  0.82995966    -0.08600
C311        C  0.14238852  0.20241577  0.81904100     0.06100
C312        C  0.17002267  0.20406005  0.82721167    -0.08000
H313        H  0.13882780  0.15656247  0.87180824     0.11700
H314        H  0.09222831  0.18309173  0.82363664     0.09200
H315        H  0.19227826  0.21775408  0.81863301     0.09100
C316        C  0.49946187  0.08495986  0.91202506     0.06100
C317        C  0.02778665  0.10121668  0.90035348    -0.10000
C318        C  0.02874505  0.11651506  0.88084163     0.03600
C319        C  0.50139688  0.11548965  0.87286129    -0.08600
C320        C  0.47296417  0.09915957  0.88444215     0.06100
C321        C  0.47197104  0.08390090  0.90409606    -0.08000
H322        H  0.04909344  0.10220230  0.90653576     0.11700
H323        H  0.50235434  0.12775239  0.85786146     0.09200
H324        H  0.45006950  0.07159116  0.91326125     0.09100
O325        O  0.35667441  0.11683178  0.80918200    -0.77200
O326        O  0.22114096  0.09168139  0.88412100    -0.78700
O327        O  0.27553780  0.04519252  0.84772464    -0.75700
O328        O  0.25629458  0.11027502  0.81037820    -0.74100
O329        O  0.27759935  0.16412518  0.80990951    -0.75900
O330        O  0.30530602  0.04964737  0.87788808    -0.76800
O331        O  0.22523575  0.06726580  0.85334034    -0.78200
O332        O  0.30276279  0.08434868  0.80885279    -0.78500
Eu333      Eu  0.28065522  0.09685634  0.84064077     2.39200
O334        O  0.27306404  0.13768419  0.85372384    -0.86000
O335        O  0.32985805  0.10480222  0.85291658    -0.89600
C336        C  0.33068046  0.09435660  0.80104222     1.05100
C337        C  0.20973221  0.06963162  0.86961139     1.04900
C338        C  0.28718364  0.03412858  0.86171988     1.04900
C339        C  0.25931971  0.13609056  0.80237236     1.02700
H340        H  0.26515420  0.07591058  0.88438125     0.32500
O341        O  0.28128366  0.09628275  0.87905041    -0.98400
H342        H  0.32137253  0.14593973  0.81207180     0.32500
O343        O  0.32160213  0.14583570  0.82783684    -1.00900
O344        O  0.28736679  0.17423292  0.92315340    -0.78100
O345        O  0.42236841  0.20029713  0.84789793    -0.77700
O346        O  0.29395711  0.08107372  0.92250565    -0.76100
O347        O  0.26726211  0.19142037  0.84885191    -0.79400
O348        O  0.35055536  0.21058110  0.81009550    -0.77300
O349        O  0.37608816  0.09848354  0.88284589    -0.75900
O350        O  0.38611271  0.18046696  0.92277877    -0.77500
O351        O  0.36904765  0.24653801  0.88394175    -0.79400
O352        O  0.36527079  0.12666734  0.92287428    -0.76100
O353        O  0.33949099  0.24212468  0.85365310    -0.78800
O354        O  0.26133926  0.10226291  0.92336482    -0.74500
O355        O  0.40048810  0.12777073  0.85229909    -0.74600
O356        O  0.38322670  0.18944959  0.80912683    -0.74200
O357        O  0.24266361  0.16173186  0.87919716    -0.77700
O358        O  0.34121408  0.20709446  0.92336938    -0.77100
O359        O  0.41811361  0.22460591  0.87868415    -0.75500
Eu360      Eu  0.27333701  0.13731000  0.89204347     2.39800
Eu361      Eu  0.37070161  0.15367963  0.84023245     2.39600
Eu362      Eu  0.33041695  0.10459540  0.89126532     2.38400
Eu363      Eu  0.31385550  0.18673988  0.84096367     2.39900
Eu364      Eu  0.36314458  0.19448947  0.89167825     2.39800
O365        O  0.36282907  0.19460646  0.85330173    -0.89900
O366        O  0.32246372  0.14536516  0.90426887    -0.88800
C367        C  0.31332027  0.19689661  0.93123239     1.05300
C368        C  0.43354202  0.22250834  0.86229991     1.04000
C369        C  0.27149928  0.08438277  0.93088218     1.03400
C370        C  0.24479898  0.17966397  0.86303682     1.05400
C371        C  0.37312848  0.20749465  0.80176612     1.04300
C372        C  0.39817031  0.10958355  0.86836392     1.03200
C373        C  0.38282755  0.15452696  0.93084667     1.03200
C374        C  0.35768383  0.25772904  0.86978572     1.05900
H375        H  0.39173161  0.15811795  0.88390331     0.33200
O376        O  0.37136263  0.15396616  0.87865957    -1.02000
H377        H  0.30959970  0.20239946  0.88485733     0.35300
O378        O  0.31378041  0.18632368  0.87937206    -1.04600
O379        O  0.42328281  0.45019115  0.97732468    -0.77200
O380        O  0.03611790  0.42597952  0.05007027    -0.78700
O381        O  0.01696257  0.44437325  0.97659216    -0.75700
O382        O  0.43504578  0.37837635  0.01601888    -0.74100
O383        O  0.41067498  0.38258215  0.04677957    -0.75900
O384        O  0.05001660  0.49817518  0.97628237    -0.76800
O385        O  0.50635153  0.40124529  0.01977215    -0.78200
O386        O  0.44435953  0.41748144  0.97667718    -0.78500
Eu387      Eu  0.48033874  0.43068197  0.00770827     2.39200
O388        O  0.48105566  0.43058185  0.04608732    -0.86000
O389        O  0.48821583  0.47961995  0.99511800    -0.89600
C390        C  0.42623353  0.42739807  0.96918701     1.05100
C391        C  0.02479999  0.40374367  0.03567090     1.04900
C392        C  0.03977709  0.47020732  0.96854951     1.04900
C393        C  0.41301862  0.36699846  0.03055332     1.02700
H394        H  0.04562650  0.46757315  0.01469581     0.32500
O395        O  0.02938319  0.47153012  0.02015161    -0.98400
H396        H  0.41894759  0.42225217  0.01545038     0.32500
O397        O  0.43932664  0.43857323  0.02064732    -1.00900
O398        O  0.05413180  0.00929447  0.08909558    -0.78100
O399        O  0.44073345  0.03303072  0.01658829    -0.77700
O400        O  0.08980612  0.02765817  0.01551879    -0.76100
O401        O  0.45422766  0.41570619  0.08998604    -0.79400
O402        O  0.38807757  0.43257718  0.05134273    -0.77300
O403        O  0.02308539  0.04319480  0.97650010    -0.75900
O404        O  0.04258886  0.08040485  0.05073635    -0.77500
O405        O  0.45964892  0.01461177  0.08969185    -0.79400
O406        O  0.06699995  0.07599751  0.02007507    -0.76100
O407        O  0.42702168  0.46073386  0.09018402    -0.78800
O408        O  0.08576601  0.49844613  0.04591314    -0.74500
O409        O  0.46922609  0.02205490  0.97641381    -0.74600
O410        O  0.39233403  0.46200146  0.02102670    -0.74200
O411        O  0.00812394  0.43699475  0.09019036    -0.77700
O412        O  0.03259983  0.04162790  0.08979524    -0.77100
O413        O  0.47020642  0.05776528  0.04698602    -0.75500
Eu414      Eu  0.03024503  0.47194090  0.05850227     2.39800
Eu415      Eu  0.44733411  0.48747211  0.00810372     2.39600
Eu416      Eu  0.03732782  0.02065849  0.00762883     2.38400
Eu417      Eu  0.44006142  0.43825292  0.05897866     2.39900
Eu418      Eu  0.99661295  0.02842334  0.05882591     2.39800
O419        O  0.44773988  0.48721725  0.04644124    -0.89900
O420        O  0.03774478  0.02070768  0.04597707    -0.88800
C421        C  0.05084140  0.03184621  0.09725342     1.05300
C422        C  0.45178123  0.05521946  0.03102897     1.04000
C423        C  0.10127847  0.01672992  0.02979351     1.03400
C424        C  0.48020510  0.41921876  0.09807294     1.05400
C425        C  0.37684173  0.44386582  0.03716279     1.04300
C426        C  0.99707182  0.03973427  0.96845987     1.03200
C427        C  0.06472065  0.09161966  0.03627052     1.03200
C428        C  0.43701511  0.48872575  0.09779501     1.05900
H429        H  0.00057239  0.04902118  0.01514985     0.33200
O430        O  0.99663506  0.02874960  0.02046436    -1.02000
H431        H  0.48930351  0.47968117  0.08719200     0.35300
O432        O  0.48912648  0.47957286  0.07142777    -1.04600
O433        O  0.38659696  0.17548661  0.42200210    -0.77200
O434        O  0.27392331  0.19983062  0.34921267    -0.78700
O435        O  0.37616669  0.24640405  0.38399229    -0.75700
O436        O  0.29253922  0.18052822  0.42293545    -0.74100
O437        O  0.26017247  0.12658958  0.42348422    -0.75900
O438        O  0.40043190  0.24188267  0.35326836    -0.76800
O439        O  0.30319075  0.22453235  0.37968212    -0.78200
O440        O  0.36535111  0.20807169  0.42272618    -0.78500
Eu441      Eu  0.32931802  0.19489594  0.39178968     2.39200
O442        O  0.28045024  0.15369817  0.37943792    -0.86000
O443        O  0.37020406  0.18687224  0.37885699    -0.89600
C444        C  0.38351310  0.19816101  0.43014224     1.05100
C445        C  0.28489495  0.22202552  0.36362769     1.04900
C446        C  0.39841527  0.25741878  0.36960514     1.04900
C447        C  0.27021374  0.15453184  0.43118624     1.02700
H448        H  0.33378774  0.21571334  0.34801925     0.32500
O449        O  0.32973210  0.19542512  0.35338378    -0.98400
H450        H  0.32191169  0.14590016  0.42012376     0.32500
O451        O  0.32169865  0.14593783  0.40435691    -1.00900
O452        O  0.25711479  0.11762395  0.31000425    -0.78100
O453        O  0.36775801  0.09174705  0.38364289    -0.77700
O454        O  0.35593074  0.20903831  0.30916592    -0.76100
O455        O  0.22098789  0.09947434  0.38437011    -0.79400
O456        O  0.28681912  0.08100028  0.42234035    -0.77300
O457        O  0.42229442  0.19310749  0.34828600    -0.75900
O458        O  0.34937492  0.11074444  0.30921377    -0.77500
O459        O  0.26794696  0.04492796  0.34872991    -0.79400
O460        O  0.38213581  0.16457569  0.30878372    -0.76100
O461        O  0.24341914  0.04904164  0.37943763    -0.78800
O462        O  0.30211068  0.18812691  0.30918951    -0.74500
O463        O  0.41803861  0.16403896  0.37880774    -0.74600
O464        O  0.34072815  0.10255364  0.42272777    -0.74200
O465        O  0.22546773  0.12898014  0.35405092    -0.77700
O466        O  0.27829257  0.08499890  0.30932438    -0.77100
O467        O  0.33828495  0.06710724  0.35323580    -0.75500
Eu468      Eu  0.28038196  0.15416405  0.34112064     2.39800
Eu469      Eu  0.36270308  0.13819894  0.39143315     2.39600
Eu470      Eu  0.37016882  0.18686873  0.34053121     2.38400
Eu471      Eu  0.27271753  0.10459381  0.39183894     2.39900
Eu472      Eu  0.31321104  0.09716854  0.34065495     2.39800
O473        O  0.31365008  0.09703027  0.37895907    -0.89900
O474        O  0.32105409  0.14605528  0.32825669    -0.88800
C475        C  0.26051316  0.09520257  0.30170712     1.05300
C476        C  0.35627497  0.06937710  0.36937612     1.04000
C477        C  0.32989933  0.20547837  0.30108303     1.03400
C478        C  0.20993170  0.11094943  0.37020819     1.05400
C479        C  0.31276941  0.08433030  0.43037597     1.04300
C480        C  0.43357309  0.18207947  0.36261495     1.03200
C481        C  0.37178761  0.13666546  0.30094450     1.03200
C482        C  0.24594144  0.03349944  0.36325870     1.05900
H483        H  0.37842732  0.13356432  0.34755571     0.33200
O484        O  0.36233543  0.13774333  0.35303874    -1.02000
H485        H  0.25172077  0.08880933  0.34817860     0.35300
O486        O  0.27207543  0.10504640  0.35347759    -1.04600
O487        O  0.20842263  0.41158814  0.71726350    -0.77200
O488        O  0.18293377  0.27571283  0.64270589    -0.78700
O489        O  0.25505910  0.35838905  0.68109150    -0.75700
O490        O  0.18900439  0.37483517  0.64236614    -0.74100
O491        O  0.13512173  0.35348555  0.64207745    -0.75900
O492        O  0.25095890  0.32939396  0.71161392    -0.76800
O493        O  0.21562726  0.32957868  0.64224477    -0.78200
O494        O  0.23330191  0.40693466  0.68694066    -0.78500
Eu495      Eu  0.20289071  0.35203333  0.67353882     2.39200
O496        O  0.15384634  0.31094647  0.66108360    -0.86000
O497        O  0.20294925  0.35229325  0.71185061    -0.89600
C498        C  0.23103583  0.42251603  0.70318512     1.05100
C499        C  0.20562200  0.30162093  0.63459538     1.04900
C500        C  0.26641585  0.34736755  0.69535439     1.04900
C501        C  0.16301199  0.37127896  0.63420451     1.02700
H502        H  0.21108927  0.29872789  0.68074932     0.32500
O503        O  0.19495374  0.30289199  0.68612916    -0.98400
H504        H  0.16638119  0.38058738  0.68083885     0.32500
O505        O  0.16226962  0.36029578  0.68623513    -1.00900
O506        O  0.10037414  0.20987834  0.68202611    -0.78100
O507        O  0.12501153  0.34633455  0.75557349    -0.77700
O508        O  0.20025362  0.25693583  0.71710343    -0.76100
O509        O  0.08951102  0.28198244  0.64297637    -0.79400
O510        O  0.10680183  0.36485786  0.68158482    -0.77300
O511        O  0.21930801  0.34117712  0.75506192    -0.75900
O512        O  0.11984645  0.24672838  0.75559697    -0.77500
O513        O  0.05395619  0.26519679  0.71781428    -0.79400
O514        O  0.17378904  0.26852962  0.75598532    -0.76100
O515        O  0.05827659  0.29440591  0.68735587    -0.78800
O516        O  0.17079201  0.23194502  0.68675504    -0.74500
O517        O  0.19748767  0.37324803  0.75583335    -0.74600
O518        O  0.13587848  0.38958498  0.71212523    -0.74200
O519        O  0.11074268  0.24939268  0.64241406    -0.77700
O520        O  0.07589528  0.21433816  0.71265202    -0.77100
O521        O  0.09293791  0.29239990  0.75653069    -0.75500
Eu522      Eu  0.14592535  0.26204781  0.67373058     2.39800
Eu523      Eu  0.16180743  0.36001585  0.72463634     2.39600
Eu524      Eu  0.19561153  0.30373115  0.72449308     2.38400
Eu525      Eu  0.11302227  0.31898403  0.67385660     2.39900
Eu526      Eu  0.10553464  0.26994300  0.72496402     2.39800
O527        O  0.11306780  0.31877596  0.71219924    -0.89900
O528        O  0.14653858  0.26243848  0.71205782    -0.88800
C529        C  0.07829473  0.19862762  0.69652984     1.05300
C530        C  0.10276984  0.32047606  0.76397936     1.04000
C531        C  0.18869701  0.23434981  0.70299681     1.03400
C532        C  0.09284344  0.25946438  0.63478006     1.05400
C533        C  0.11784646  0.38715192  0.69592732     1.04300
C534        C  0.21583859  0.36358432  0.76329042     1.03200
C535        C  0.14586724  0.25027880  0.76367255     1.03200
C536        C  0.04289629  0.27674575  0.70372317     1.05900
H537        H  0.15465772  0.31138938  0.75317452     0.33200
O538        O  0.15447785  0.31131610  0.73740958    -1.02000
H539        H  0.08448558  0.25381064  0.68129484     0.35300
O540        O  0.10486253  0.27006211  0.68653614    -1.04600
O541        O  0.19015160  0.28412090  0.14277948    -0.77200
O542        O  0.05358574  0.25917198  0.21650073    -0.78700
O543        O  0.10807876  0.21241673  0.18116233    -0.75700
O544        O  0.09122603  0.27869144  0.14237797    -0.74100
O545        O  0.11264801  0.33259254  0.14215949    -0.75900
O546        O  0.13720751  0.21679700  0.21167662    -0.76800
O547        O  0.05792641  0.23480243  0.18578079    -0.78200
O548        O  0.13628955  0.25129638  0.14230558    -0.78500
Eu549      Eu  0.11363156  0.26430130  0.17348109     2.39200
O550        O  0.10593503  0.30527260  0.18630557    -0.86000
O551        O  0.16257909  0.27198534  0.18616177    -0.89600
C552        C  0.16429943  0.26143492  0.13464418     1.05100
C553        C  0.04226637  0.23713351  0.20197761     1.04900
C554        C  0.11923417  0.20123854  0.19548024     1.04900
C555        C  0.09484853  0.30471403  0.13425789     1.02700
H556        H  0.09744867  0.24330418  0.21714924     0.32500
O557        O  0.11370797  0.26365778  0.21186896    -0.98400
H558        H  0.15522882  0.31366343  0.14534497     0.32500
O559        O  0.15498794  0.31341478  0.16111223    -1.00900
O560        O  0.11978890  0.34083928  0.25615828    -0.78100
O561        O  0.25555714  0.36717356  0.18159921    -0.77700
O562        O  0.12585377  0.24860339  0.25550659    -0.76100
O563        O  0.10058184  0.35943973  0.18181443    -0.79400
O564        O  0.18532281  0.37897145  0.14389569    -0.77300
O565        O  0.20828034  0.26540551  0.21652654    -0.75900
O566        O  0.21776857  0.34765631  0.25632701    -0.77500
O567        O  0.20245028  0.41420281  0.21699126    -0.79400
O568        O  0.19640802  0.29379016  0.25655852    -0.76100
O569        O  0.17322376  0.40997120  0.18656718    -0.78800
O570        O  0.09316367  0.26970400  0.25606326    -0.74500
O571        O  0.23323032  0.29480528  0.18615556    -0.74600
O572        O  0.21766806  0.35744217  0.14323621    -0.74200
O573        O  0.07591632  0.33001603  0.21224096    -0.77700
O574        O  0.17363040  0.37377544  0.25648314    -0.77100
O575        O  0.25102835  0.39176422  0.21211771    -0.75500
Eu576      Eu  0.10578819  0.30473249  0.22465772     2.39800
Eu577      Eu  0.20377891  0.32086147  0.17383479     2.39600
Eu578      Eu  0.16264601  0.27188806  0.22449582     2.38400
Eu579      Eu  0.14720239  0.35448996  0.17398121     2.39900
Eu580      Eu  0.19580923  0.36185999  0.22479795     2.39800
O581        O  0.19587199  0.36191271  0.18652514    -0.89900
O582        O  0.15474075  0.31278377  0.23707925    -0.88800
C583        C  0.14574215  0.36327939  0.26437561     1.05300
C584        C  0.26663743  0.38949832  0.19590640     1.04000
C585        C  0.10331160  0.25188280  0.26372046     1.03400
C586        C  0.07822994  0.34803039  0.19612084     1.05400
C587        C  0.20811540  0.37592603  0.13591632     1.04300
C588        C  0.23058958  0.27648196  0.20219821     1.03200
C589        C  0.21393355  0.32160988  0.26457893     1.03200
C590        C  0.19148311  0.42557331  0.20267253     1.05900
H591        H  0.22434526  0.32521808  0.21765996     0.33200
O592        O  0.20408795  0.32118458  0.21221883    -1.02000
H593        H  0.14248332  0.37010951  0.21781724     0.35300
O594        O  0.14656464  0.35395146  0.21235445    -1.04600
O595        O  0.45304737  0.00728417  0.58873030    -0.77200
O596        O  0.08904818  0.03222249  0.51464061    -0.78700
O597        O  0.05268412  0.01385549  0.58833827    -0.75700
O598        O  0.03588852  0.07995606  0.54948765    -0.74100
O599        O  0.00671190  0.07562869  0.51901476    -0.75900
O600        O  0.03182025  0.46005379  0.58848904    -0.76800
O601        O  0.08449978  0.05703742  0.54503922    -0.78200
O602        O  0.00690736  0.04004250  0.58913876    -0.78500
Eu603      Eu  0.02926133  0.02765633  0.55753582     2.39200
O604        O  0.02944927  0.02765842  0.51918980    -0.86000
O605        O  0.48828688  0.47862498  0.57007706    -0.89600
C606        C  0.47895880  0.02980500  0.59693171     1.05100
C607        C  0.10019893  0.05446341  0.52902319     1.04900
C608        C  0.04970120  0.48798442  0.59625903     1.04900
C609        C  0.02487799  0.09124928  0.53513561     1.02700
H610        H  0.05766493  0.99085464  0.55008609     0.32500
O611        O  0.03736459  0.48690574  0.54480585    -0.98400
H612        H  0.47611131  0.03601348  0.55043161     0.32500
O613        O  0.48014443  0.01979264  0.54503459    -1.00900
O614        O  0.02320296  0.44946555  0.47566366    -0.78100
O615        O  0.38708244  0.42510072  0.54948289    -0.77700
O616        O  0.04158468  0.43077330  0.54905174    -0.76100
O617        O  0.01794909  0.04363529  0.47610689    -0.79400
O618        O  0.43439726  0.02566520  0.51462094    -0.77300
O619        O  0.45974847  0.41463037  0.58837855    -0.75900
O620        O  0.44102417  0.37814092  0.51415275    -0.77500
O621        O  0.42359245  0.44430032  0.47578801    -0.79400
O622        O  0.47037701  0.38260489  0.54456393    -0.76100
O623        O  0.44537854  0.49823294  0.47533934    -0.78800
O624        O  0.06637972  0.45999176  0.51859358    -0.74500
O625        O  0.42694522  0.43561905  0.58878220    -0.74600
O626        O  0.40964312  0.49629906  0.54504447    -0.74200
O627        O  0.05018349  0.02198546  0.47533501    -0.77700
O628        O  0.46925182  0.41722015  0.47501680    -0.77100
O629        O  0.39129819  0.40043589  0.51888524    -0.75500
Eu630      Eu  0.03705213  0.48636498  0.50649576     2.39800
Eu631      Eu  0.43935693  0.47078232  0.55749552     2.39600
Eu632      Eu  0.49624413  0.43774108  0.55726396     2.38400
Eu633      Eu  0.48067622  0.02014763  0.50670066     2.39900
Eu634      Eu  0.44683380  0.43006347  0.50640433     2.39800
O635        O  0.43928832  0.47113633  0.51915731    -0.89900
O636        O  0.49580970  0.43754839  0.51892430    -0.88800
C637        C  0.99726445  0.42708832  0.46745110     1.05300
C638        C  0.37574608  0.40283226  0.53511430     1.04000
C639        C  0.06381119  0.44171360  0.53465549     1.03400
C640        C  0.04038843  0.04022705  0.46789622     1.05400
C641        C  0.41205822  0.01439441  0.52893995     1.04300
C642        C  0.43712064  0.41784930  0.59649021     1.03200
C643        C  0.45225123  0.36700809  0.52844496     1.03200
C644        C  0.42712170  0.47029829  0.46771637     1.05900
H645        H  0.43106975  0.40941520  0.55009350     0.33200
O646        O  0.44732063  0.42973472  0.54475724    -1.02000
H647        H  0.48821970  0.47905382  0.47809153     0.35300
O648        O  0.48821942  0.47895340  0.49385733    -1.04600
C649        C  0.99889789  0.05663337  0.94890208    -0.10300
C650        C  0.49895993  0.06968608  0.93220328    -0.11900
C651        C  0.44544599  0.09984244  0.87677359    -0.10300
C652        C  0.42331101  0.10286732  0.87151709    -0.11900
C653        C  0.14329590  0.21889667  0.79936337    -0.10300
C654        C  0.14385956  0.23279345  0.78296909    -0.11900
C655        C  0.21913771  0.18549651  0.85955365    -0.10300
C656        C  0.19660442  0.18776417  0.85418643    -0.11900
C657        C  0.08285279  0.14936874  0.86000245    -0.10300
C658        C  0.05807850  0.13409307  0.86935270    -0.11900
C659        C  0.06468467  0.30237478  0.09799959    -0.10300
C660        C  0.07805453  0.30279117  0.11462406    -0.11900
C661        C  0.03170320  0.37864897  0.03849354    -0.10300
C662        C  0.03428200  0.35605158  0.04316939    -0.11900
C663        C  0.44172882  0.10257168  0.02316998    -0.10300
C664        C  0.44475586  0.08026188  0.02804045    -0.11900
C665        C  0.41234363  0.15635278  0.96738661    -0.10300
C666        C  0.39962522  0.15640147  0.95052199    -0.11900
C667        C  0.49283157  0.24124930  0.03863759    -0.10300
C668        C  0.47695141  0.21592967  0.03001400    -0.11900
C669        C  0.05284019  0.35434220  0.19298336    -0.10300
C670        C  0.03012284  0.35663436  0.18825324    -0.11900
C671        C  0.47706828  0.38846536  0.13415369    -0.10300
C672        C  0.47805469  0.40223889  0.11762412    -0.11900
C673        C  0.33144604  0.23472893  0.26457749    -0.10300
C674        C  0.33159684  0.22187921  0.28131454    -0.11900
C675        C  0.25559113  0.26953736  0.20540603    -0.10300
C676        C  0.27778840  0.26641529  0.21035053    -0.11900
C677        C  0.39085981  0.30162559  0.20283369    -0.10300
C678        C  0.41593629  0.31734538  0.19390773    -0.11900
C679        C  0.16507350  0.40155354  0.59801965    -0.10300
C680        C  0.16492671  0.38827246  0.61464368    -0.11900
C681        C  0.11124603  0.43199136  0.54296222    -0.10300
C682        C  0.08888426  0.43480180  0.53786888    -0.11900
C683        C  0.30996128  0.05298151  0.46613177    -0.10300
C684        C  0.31062077  0.06672672  0.44963789    -0.11900
C685        C  0.36408039  0.02327365  0.52102323    -0.10300
C686        C  0.38677447  0.02092401  0.52580133    -0.11900
C687        C  0.22489568  0.46876014  0.53632877    -0.10300
C688        C  0.24993886  0.48436140  0.52729546    -0.11900
C689        C  0.10904706  0.43504161  0.68730267    -0.10300
C690        C  0.11142038  0.41247866  0.69248676    -0.11900
C691        C  0.06751406  0.49011532  0.61540818    -0.10300
C692        C  0.08115228  0.49032675  0.63185534    -0.11900
C693        C  0.19470350  0.20883700  0.70661165    -0.10300
C694        C  0.19685989  0.18621620  0.71188461    -0.11900
C695        C  0.24118446  0.13362574  0.78331447    -0.10300
C696        C  0.22689303  0.13256225  0.76699826    -0.11900
C697        C  0.14376354  0.04786059  0.69587036    -0.10300
C698        C  0.15860850  0.07245382  0.70555339    -0.11900
C699        C  0.36485589  0.02135253  0.37760704    -0.10300
C700        C  0.36249198  0.04395045  0.37264039    -0.11900
C701        C  0.40959338  0.46827278  0.44850437    -0.10300
C702        C  0.39575514  0.46781962  0.43214436    -0.11900
C703        C  0.27441408  0.26906508  0.35556970    -0.10300
C704        C  0.27776720  0.24697876  0.36051669    -0.11900
C705        C  0.24303738  0.32307125  0.30119861    -0.10300
C706        C  0.23024631  0.32331394  0.28443150    -0.11900
C707        C  0.32679792  0.40755323  0.37142268    -0.10300
C708        C  0.31104832  0.38248039  0.36251932    -0.11900
C709        C  0.42169519  0.49094056  0.11704082    -0.10300
C710        C  0.40836811  0.49140873  0.13342319    -0.11900
C711        C  0.32341570  0.43748922  0.18765980    -0.10300
C712        C  0.29838132  0.41488588  0.19261014    -0.11900
C713        C  0.38660220  0.13472911  0.28130245    -0.10300
C714        C  0.39985930  0.13501133  0.26466016    -0.11900
C715        C  0.48495905  0.18981970  0.21021324    -0.10300
C716        C  0.01025148  0.21206741  0.20516455    -0.11900
C717        C  0.40835354  0.07638820  0.20293875    -0.10300
C718        C  0.39904865  0.05136391  0.19399951    -0.11900
C719        C  0.46528015  0.18848397  0.35917019    -0.10300
C720        C  0.49010306  0.19065281  0.35398319    -0.11900
C721        C  0.08808357  0.23442439  0.28304210    -0.10300
C722        C  0.07459386  0.22065479  0.29941217    -0.11900
C723        C  0.05560981  0.05784420  0.44869020    -0.10300
C724        C  0.06859938  0.07164078  0.43224473    -0.11900
C725        C  0.17828970  0.10468456  0.37352571    -0.10300
C726        C  0.15326581  0.10237532  0.37819297    -0.11900
C727        C  0.07511503  0.13703273  0.36979890    -0.10300
C728        C  0.06527939  0.15200634  0.36046362    -0.11900
C729        C  0.34505821  0.43733525  0.04048210    -0.10300
C730        C  0.32010069  0.43515800  0.04528151    -0.11900
C731        C  0.22407858  0.39416308  0.11708425    -0.10300
C732        C  0.23759832  0.40791201  0.10075585    -0.11900
C733        C  0.24265714  0.05378643  0.96673768    -0.10300
C734        C  0.25632596  0.06699472  0.95025669    -0.11900
C735        C  0.15824504  0.02594638  0.02134581    -0.10300
C736        C  0.13322477  0.02356657  0.02637726    -0.11900
C737        C  0.24401890  0.47291614  0.03830885    -0.10300
C738        C  0.23405935  0.48798718  0.02924072    -0.11900
C739        C  0.23520699  0.29980432  0.59914694    -0.10300
C740        C  0.22130202  0.29961174  0.61543107    -0.11900
C741        C  0.31916874  0.35473345  0.54395956    -0.10300
C742        C  0.34398049  0.37741794  0.53861680    -0.11900
C743        C  0.15759680  0.10186454  0.52162779    -0.10300
C744        C  0.13223097  0.07940701  0.52612419    -0.11900
C745        C  0.25537041  0.15648081  0.45076471    -0.10300
C746        C  0.24235472  0.15648808  0.46742627    -0.11900
C747        C  0.24346155  0.24069596  0.53769157    -0.10300
C748        C  0.23378193  0.21558817  0.52877820    -0.11900
C749        C  0.38828680  0.22536541  0.78258673    -0.10300
C750        C  0.40166391  0.23949023  0.76630238    -0.11900
C751        C  0.01153678  0.27114061  0.70747773    -0.10300
C752        C  0.48691394  0.26947108  0.71258086    -0.11900
C753        C  0.32315483  0.35646843  0.68648675    -0.10300
C754        C  0.29814550  0.35383760  0.69175461    -0.11900
C755        C  0.40822164  0.38687732  0.63217177    -0.10300
C756        C  0.42179265  0.40040904  0.61577053    -0.11900
C757        C  0.40145779  0.32216251  0.69501361    -0.10300
C758        C  0.41130699  0.30739279  0.70460135    -0.11900
C759        C  0.17781099  0.04456047  0.87289124    -0.10300
C760        C  0.15266616  0.02221836  0.87800495    -0.11900
C761        C  0.06867150  0.46756298  0.93298201    -0.10300
C762        C  0.05523445  0.46795537  0.94935291    -0.11900
C763        C  0.49012841  0.27069600  0.85404456    -0.10300
C764        C  0.46518761  0.24798008  0.85895760    -0.11900
C765        C  0.07485427  0.32417565  0.79976679    -0.10300
C766        C  0.08777486  0.32297968  0.78335361    -0.11900
C767        C  0.06567500  0.38451323  0.86055093    -0.10300
C768        C  0.07517996  0.40918405  0.87006477    -0.11900
C769        C  0.24341523  0.08022879  0.28225569    -0.10300
C770        C  0.23036918  0.06692691  0.26566879    -0.11900
C771        C  0.19841033  0.45755028  0.20594409    -0.10300
C772        C  0.20118390  0.48275014  0.21086975    -0.11900
C773        C  0.06845159  0.04722229  0.11646241    -0.10300
C774        C  0.08181281  0.06046269  0.13298397    -0.11900
C775        C  0.11014307  0.14427196  0.18765210    -0.10300
C776        C  0.11262077  0.16940274  0.19229911    -0.11900
C777        C  0.14806950  0.06848063  0.19511234    -0.10300
C778        C  0.16354666  0.05884904  0.20399405    -0.11900
C779        C  0.22112607  0.00147051  0.36010028    -0.10300
C780        C  0.19896587  0.47620093  0.35503116    -0.11900
C781        C  0.14430870  0.39128868  0.30064307    -0.10300
C782        C  0.14389645  0.37799387  0.28402740    -0.11900
C783        C  0.50027637  0.39896634  0.43167950    -0.10300
C784        C  0.49951663  0.41199181  0.44812129    -0.11900
C785        C  0.44680094  0.31397604  0.37765431    -0.10300
C786        C  0.42402074  0.28900679  0.37288335    -0.11900
C787        C  0.06040150  0.39059298  0.37085453    -0.10300
C788        C  0.08543834  0.40013642  0.36190132    -0.11900
C789        C  0.08990741  0.12355965  0.03934685    -0.10300
C790        C  0.11248316  0.14874300  0.04411919    -0.11900
C791        C  0.16654065  0.24629474  0.11525992    -0.10300
C792        C  0.16692648  0.23318189  0.09871556    -0.11900
C793        C  0.31122267  0.22569708  0.96707224    -0.10300
C794        C  0.31135906  0.21221836  0.95063420    -0.11900
C795        C  0.36535111  0.31009060  0.02201888    -0.10300
C796        C  0.38784054  0.33508736  0.02726603    -0.11900
C797        C  0.22636974  0.22479347  0.03724994    -0.10300
C798        C  0.25137694  0.23429642  0.02817835    -0.11900
C799        C  0.06261979  0.23139853  0.59868156    -0.10300
C800        C  0.07560603  0.24436459  0.61537708    -0.11900
C801        C  0.03152085  0.12311510  0.53840528    -0.10300
C802        C  0.03404126  0.14821027  0.54330095    -0.11900
C803        C  0.44388437  0.31046303  0.52036170    -0.10300
C804        C  0.44578121  0.33525989  0.52521909    -0.11900
C805        C  0.41548224  0.22704786  0.46549758    -0.10300
C806        C  0.40145441  0.21362128  0.44921033    -0.11900
C807        C  0.48504673  0.23708601  0.52609040    -0.10300
C808        C  0.00009270  0.22710892  0.53518279    -0.11900
C809        C  0.36386538  0.28938186  0.87340641    -0.10300
C810        C  0.36593049  0.31414990  0.87871071    -0.11900
C811        C  0.39404784  0.39786947  0.93386329    -0.10300
C812        C  0.40804636  0.41160612  0.95015168    -0.11900
C813        C  0.24731720  0.39224038  0.79894608    -0.10300
C814        C  0.23348867  0.37895745  0.78253197    -0.11900
C815        C  0.27835876  0.47749778  0.85297809    -0.10300
C816        C  0.28091130  0.00250150  0.85809974    -0.11900
C817        C  0.31460391  0.40061790  0.86089048    -0.10300
C818        C  0.32934379  0.39082298  0.87062612    -0.11900
C819        C  0.03103159  0.14127005  0.68849422    -0.10300
C820        C  0.05325881  0.16661198  0.69343521    -0.11900
C821        C  0.47670800  0.05748899  0.63328127    -0.10300
C822        C  0.47687987  0.04469768  0.61651082    -0.11900
C823        C  0.27934683  0.47888770  0.71204738    -0.10300
C824        C  0.25671225  0.45401734  0.70683407    -0.11900
C825        C  0.33316212  0.06562988  0.76526613    -0.10300
C826        C  0.33269757  0.07914971  0.78159253    -0.11900
C827        C  0.39340939  0.05357046  0.70578828    -0.10300
C828        C  0.41824339  0.06281124  0.69654603    -0.11900
C829        C  0.30733642  0.50685292  0.71952581     0.06100
C830        C  0.33619856  0.51694338  0.70885655    -0.10000
C831        C  0.36380577  0.54321683  0.71667130     0.03600
C832        C  0.36265659  0.55943268  0.73514381    -0.08600
C833        C  0.33390412  0.54932706  0.74592194     0.06100
C834        C  0.30618169  0.52303053  0.73810906    -0.08000
H835        H  0.33722135  0.50425070  0.69463847     0.11700
H836        H  0.38411730  0.57972402  0.74120047     0.09200
H837        H  0.28393702  0.51498059  0.74658658     0.09100
C838        C  0.00337793  0.61286112  0.68110825     0.06100
C839        C  0.47508267  0.60072442  0.69289142    -0.10000
C840        C  0.44755843  0.57440881  0.68500765     0.03600
C841        C  0.44824818  0.56009861  0.66540973    -0.08600
C842        C  0.47643401  0.57215981  0.65356732     0.06100
C843        C  0.00405724  0.59856370  0.66140098    -0.08000
H844        H  0.47433680  0.61207228  0.70791977     0.11700
H845        H  0.42682377  0.53984320  0.65927143     0.09200
H846        H  0.02582406  0.60817333  0.65208003     0.09100
C847        C  0.27815867  0.94942649  0.84560157     0.06100
C848        C  0.29551879  0.93832079  0.85700656    -0.10000
C849        C  0.29676566  0.91199418  0.84927337     0.03600
C850        C  0.28074728  0.89676924  0.83014276    -0.08600
C851        C  0.26346324  0.90786263  0.81868539     0.06100
C852        C  0.26211376  0.93419174  0.82640234    -0.08000
H853        H  0.30823276  0.95028044  0.87172941     0.11700
H854        H  0.28181084  0.87641507  0.82415691     0.09200
H855        H  0.24893569  0.94295891  0.81740689     0.09100
C856        C  0.36542147  0.84180897  0.88636188     0.06100
C857        C  0.38022500  0.85629634  0.90609084    -0.10000
C858        C  0.37832334  0.88229745  0.91394531     0.03600
C859        C  0.36151819  0.89363721  0.90215914    -0.08600
C860        C  0.34674557  0.87918975  0.88251942     0.06100
C861        C  0.34868983  0.85332042  0.87459953    -0.05000
H862        H  0.39304747  0.84733435  0.91530424     0.11700
H863        H  0.36000486  0.91370925  0.90822593     0.09200
H864        H  0.33696658  0.84200425  0.85945637     0.09100
C865        C  0.44486628  0.78314084  0.51268342     0.06100
C866        C  0.46352094  0.77303812  0.52353400    -0.10000
C867        C  0.46616981  0.74778265  0.51512835     0.03600
C868        C  0.45027165  0.73266438  0.49596677    -0.08600
C869        C  0.43168422  0.74272695  0.48514816     0.06100
C870        C  0.42893215  0.76795728  0.49346472    -0.08000
H871        H  0.47616059  0.78496230  0.53828450     0.11700
H872        H  0.45236161  0.71311212  0.48948942     0.09200
H873        H  0.41477045  0.77595922  0.48489404     0.09100
C874        C  0.04781596  0.71679052  0.57839777     0.06100
C875        C  0.04906838  0.69045771  0.57057242    -0.10000
C876        C  0.03438667  0.67637467  0.55074600     0.03600
C877        C  0.01842438  0.68866096  0.53886097    -0.08600
C878        C  0.01727455  0.71498976  0.54677659     0.06100
C879        C  0.03200375  0.72904617  0.56647682    -0.08000
H880        H  0.06110943  0.68079575  0.57995905     0.11700
H881        H  0.50657299  0.67752465  0.52371401     0.09200
H882        H  0.03092694  0.74932839  0.57261599     0.09100
C883        C  0.33739093  0.78226759  0.01424876     0.06100
C884        C  0.33840086  0.76723719  0.99498169    -0.10000
C885        C  0.31065240  0.74125637  0.98685887     0.03600
C886        C  0.28202562  0.73037495  0.99795901    -0.08600
C887        C  0.28098965  0.74538197  0.01711142     0.06100
C888        C  0.30861916  0.77131522  0.02527048    -0.08000
H889        H  0.36054969  0.77589389  0.98625390     0.11700
H890        H  0.26055697  0.71035050  0.99164964     0.09200
H891        H  0.30766249  0.78313459  0.03999636     0.09100
C892        C  0.14046643  0.67680057  0.05153481     0.06100
C893        C  0.16912090  0.68777447  0.04034172    -0.10000
C894        C  0.19681790  0.71376638  0.04838944     0.03600
C895        C  0.19593915  0.72879467  0.06757847    -0.08600
C896        C  0.16741150  0.71785686  0.07881579     0.06100
C897        C  0.13962398  0.69187431  0.07080081    -0.08000
H898        H  0.16995540  0.67587667  0.02562228     0.11700
H899        H  0.21745450  0.74881590  0.07383639     0.09200
H900        H  0.11757519  0.68315862  0.07967020     0.09100
C901        C  0.47467033  0.84204064  0.38503699     0.06100
C902        C  0.50336409  0.85311594  0.37390855    -0.10000
C903        C  0.03082851  0.87944015  0.38186134     0.03600
C904        C  0.02970866  0.89467856  0.40084890    -0.08600
C905        C  0.50111711  0.88354999  0.41199635     0.06100
C906        C  0.47355544  0.85724846  0.40412124    -0.08000
H907        H  0.50439711  0.84110521  0.35930854     0.11700
H908        H  0.05106842  0.91498108  0.40702144     0.09200
H909        H  0.45144836  0.84844495  0.41293353     0.09100
C910        C  0.17115654  0.94807263  0.34758789     0.06100
C911        C  0.17200477  0.93288394  0.32836936    -0.10000
C912        C  0.14418582  0.90675677  0.32050326     0.03600
C913        C  0.11574256  0.89586012  0.33176917    -0.08600
C914        C  0.11492281  0.91106317  0.35083542     0.06100
C915        C  0.14255317  0.93713863  0.35879212    -0.08000
H916        H  0.19400642  0.94160234  0.31944168     0.11700
H917        H  0.09420889  0.87576392  0.32559369     0.09200
H918        H  0.14170059  0.94914573  0.37344909     0.09100
C919        C  0.11023851  0.61628993  0.18039865     0.06100
C920        C  0.12757867  0.60523047  0.19192414    -0.10000
C921        C  0.12963302  0.57945557  0.18389789     0.03600
C922        C  0.11436397  0.56467950  0.16450002    -0.08600
C923        C  0.09709378  0.57567164  0.15299399     0.06100
C924        C  0.09495968  0.60146388  0.16090492    -0.08000
H925        H  0.13986518  0.61695700  0.20682104     0.11700
H926        H  0.11613287  0.54481871  0.15827760     0.09200
H927        H  0.08187656  0.61022401  0.15178522     0.09100
C928        C  0.21500636  0.55165838  0.24568569     0.06100
C929        C  0.19762978  0.56265539  0.23433703    -0.10000
C930        C  0.18204199  0.54781152  0.21505382     0.03600
C931        C  0.18387567  0.52194472  0.20696226    -0.08600
C932        C  0.20132434  0.51083218  0.21829759     0.06100
C933        C  0.21693987  0.52574852  0.23771254    -0.08000
H934        H  0.19600083  0.58257299  0.24061091     0.11700
H935        H  0.17134056  0.51019276  0.19214160     0.09200
H936        H  0.23009404  0.51696898  0.24672045     0.09100
C937        C  0.01798006  0.79865341  0.84650489     0.06100
C938        C  0.02868308  0.82741220  0.85744758    -0.10000
C939        C  0.05470138  0.85501846  0.84936912     0.03600
C940        C  0.07002282  0.85392889  0.83036510    -0.08600
C941        C  0.05930130  0.82520429  0.81939767     0.06100
C942        C  0.03327784  0.79755016  0.82745989    -0.08000
H943        H  0.01663843  0.82836480  0.87205649     0.11700
H944        H  0.09014250  0.87535485  0.82410732     0.09200
H945        H  0.02475982  0.77535172  0.81882413     0.09100
C946        C  0.12462080  0.49435228  0.88553407     0.06100
C947        C  0.11019068  0.49493051  0.90519531    -0.10000
C948        C  0.08398407  0.96717813  0.91305102     0.03600
C949        C  0.07235806  0.93892772  0.90134713    -0.08600
C950        C  0.08678238  0.93836709  0.88176789     0.06100
C951        C  0.11285949  0.96603858  0.87383643    -0.08000
H952        H  0.11941743  0.51676688  0.91439030     0.11700
H953        H  0.05217249  0.91743450  0.90746917     0.09200
H954        H  0.12422855  0.96543631  0.85877909     0.09100
C955        C  0.39270295  0.87118094  0.65202410     0.06100
C956        C  0.36609248  0.87220150  0.65956384    -0.10000
C957        C  0.35131673  0.85682021  0.67906827     0.03600
C958        C  0.36311188  0.84038542  0.69086528    -0.08600
C959        C  0.38964044  0.83942718  0.68323429     0.06100
C960        C  0.40443713  0.85482753  0.66387292    -0.08000
H961        H  0.35684725  0.88469454  0.65026053     0.11700
H962        H  0.35151114  0.82812597  0.70579941     0.09200
H963        H  0.42496448  0.85397778  0.65799490     0.09100
C964        C  0.45926269  0.77007162  0.71996693     0.06100
C965        C  0.44384867  0.75417020  0.73914174    -0.10000
C966        C  0.41764309  0.75581912  0.74674015     0.03600
C967        C  0.40690906  0.77336181  0.73525999    -0.08600
C968        C  0.42239270  0.78934671  0.71620021     0.06100
C969        C  0.44856504  0.78774938  0.70852001    -0.08000
H970        H  0.45228794  0.74072489  0.74815643     0.11700
H971        H  0.38660807  0.77461370  0.74115448     0.09200
H972        H  0.46065275  0.80034937  0.69379739     0.09100
C973        C  0.18586179  0.62975604  0.51446824     0.06100
C974        C  0.19676821  0.65834837  0.52571395    -0.10000
C975        C  0.22282430  0.68603619  0.51773572     0.03600
C976        C  0.23797610  0.68521551  0.49862048    -0.08600
C977        C  0.22709668  0.65675781  0.48736403     0.06100
C978        C  0.20107328  0.62895325  0.49527392    -0.08000
H979        H  0.18472833  0.65915924  0.54036597     0.11700
H980        H  0.25800284  0.70675453  0.49239439     0.09200
H981        H  0.19235884  0.60696448  0.48633506     0.09100
C982        C  0.29154174  0.82661668  0.55180123     0.06100
C983        C  0.28044667  0.79796408  0.54059014    -0.10000
C984        C  0.25467655  0.77024135  0.54880263     0.03600
C985        C  0.23993513  0.77104536  0.56812533    -0.08600
C986        C  0.25088831  0.79952001  0.57937327     0.06100
C987        C  0.27676153  0.82737778  0.57127141    -0.08000
H988        H  0.29202839  0.79716684  0.52569384     0.11700
H989        H  0.21999348  0.74950346  0.57443150     0.09200
H990        H  0.28545138  0.84942728  0.58012224     0.09100
C991        C  0.18609409  0.52551623  0.01396647     0.06100
C992        C  0.20105880  0.54063788  0.99441946    -0.10000
C993        C  0.22698371  0.53848496  0.98668292     0.03600
C994        C  0.23784531  0.52126233  0.99837893    -0.08600
C995        C  0.22293791  0.50612286  0.01777128     0.06100
C996        C  0.19710684  0.50823673  0.02563402    -0.08000
H997        H  0.19241159  0.55372257  0.98519111     0.11700
H998        H  0.25780250  0.51950535  0.99233428     0.09200
H999        H  0.18537335  0.99613821  0.04057857     0.09100
C1000       C  0.29242912  0.93561723  0.05284003     0.06100
C1001       C  0.27819368  0.92086911  0.07258930    -0.10000
C1002       C  0.25263599  0.92320908  0.08073819     0.03600
C1003       C  0.24133371  0.94022824  0.06926739    -0.08600
C1004       C  0.25550206  0.95496341  0.04960513     0.06100
C1005       C  0.28102666  0.95266218  0.04130809    -0.08000
H1006       H  0.28714230  0.90791793  0.08166795     0.11700
H1007       H  0.22159149  0.94207158  0.07566116     0.09200
H1008       H  0.29225721  0.96447917  0.02617428     0.09100
C1009       C  0.12510112  0.60204155  0.38539161     0.06100
C1010       C  0.11340455  0.61865193  0.37369030    -0.10000
C1011       C  0.08685951  0.61954976  0.38139028     0.03600
C1012       C  0.07203404  0.60393572  0.40070410    -0.08600
C1013       C  0.08380059  0.58747908  0.41240375     0.06100
C1014       C  0.11033008  0.58650195  0.40479304    -0.08000
H1015       H  0.12509114  0.63109427  0.35882755     0.11700
H1016       H  0.05152551  0.60474079  0.40667252     0.09200
H1017       H  0.11958141  0.57393544  0.41401123     0.09100
C1018       C  0.01772814  0.69021897  0.34629297     0.06100
C1019       C  0.03295328  0.70632407  0.32710351    -0.10000
C1020       C  0.05883382  0.70439935  0.31907229     0.03600
C1021       C  0.06943822  0.68645223  0.33016075    -0.08600
C1022       C  0.05421995  0.67036520  0.34924760     0.06100
C1023       C  0.02836081  0.67217905  0.35733753    -0.08000
H1024       H  0.02454605  0.72002037  0.31837674     0.11700
H1025       H  0.08945491  0.68496152  0.32393180     0.09200
H1026       H  0.01642218  0.65941391  0.37204975     0.09100
C1027       C  0.45666289  0.66199621  0.21759014     0.06100
C1028       C  0.44545894  0.63348554  0.20620699    -0.10000
C1029       C  0.41928535  0.60584570  0.21408770     0.03600
C1030       C  0.40418339  0.60658256  0.23325204    -0.08600
C1031       C  0.41527986  0.63492714  0.24470356     0.06100
C1032       C  0.44154750  0.66272607  0.23690255    -0.08000
H1033       H  0.45738513  0.63268962  0.19148881     0.11700
H1034       H  0.38403417  0.58504977  0.23937182     0.09200
H1035       H  0.45043254  0.68463750  0.24595629     0.09100
C1036       C  0.35139715  0.96541099  0.18016262     0.06100
C1037       C  0.36219826  0.99415086  0.19117004    -0.10000
C1038       C  0.38826553  0.52174135  0.18311207     0.03600
C1039       C  0.40359132  0.52068981  0.16414662    -0.08600
C1040       C  0.39278048  0.99207249  0.15309537     0.06100
C1041       C  0.36667939  0.96437703  0.16106926    -0.08000
H1042       H  0.35012221  0.99512857  0.20575246     0.11700
H1043       H  0.42371374  0.54213736  0.15790423     0.09200
H1044       H  0.35808387  0.94225031  0.15232814     0.09100
C1045       C  0.25865702  0.82337688  0.32118867     0.06100
C1046       C  0.27611925  0.85186998  0.33247105    -0.10000
C1047       C  0.29234048  0.85288448  0.35152404     0.03600
C1048       C  0.29105652  0.82537007  0.35945563    -0.08600
C1049       C  0.27356044  0.79671162  0.34824790     0.06100
C1050       C  0.25729005  0.79570641  0.32907096    -0.08000
H1051       H  0.27741410  0.87331228  0.32628398     0.11700
H1052       H  0.30410249  0.82638650  0.37406096     0.09200
H1053       H  0.24415540  0.77369781  0.32013218     0.09100
C1054       C  0.36489528  0.99350634  0.38519635     0.06100
C1055       C  0.38107563  0.49464503  0.40438937    -0.10000
C1056       C  0.37947782  0.96702215  0.41245071     0.03600
C1057       C  0.36176051  0.93836342  0.40140869    -0.08600
C1058       C  0.34553592  0.93721447  0.38232594     0.06100
C1059       C  0.34709202  0.96474822  0.37416977    -0.08000
H1060       H  0.39453414  0.51680224  0.41312153     0.11700
H1061       H  0.36042935  0.91696944  0.40772862     0.09200
H1062       H  0.33416270  0.96371097  0.35949721     0.09100
C1063       C  0.21050304  0.63160248  0.74724563     0.06100
C1064       C  0.19271953  0.60292091  0.73616018    -0.10000
C1065       C  0.17683401  0.60189945  0.71688716     0.03600
C1066       C  0.17872931  0.62953929  0.70864522    -0.08600
C1067       C  0.19651240  0.65826150  0.71969799     0.06100
C1068       C  0.21239302  0.65929818  0.73902784    -0.08000
H1069       H  0.19124393  0.58147891  0.74250459     0.11700
H1070       H  0.16617236  0.62864129  0.69380644     0.09200
H1071       H  0.22592882  0.68147645  0.74772109     0.09100
C1072       C  0.10912904  0.96302776  0.67973184     0.06100
C1073       C  0.12506372  0.99113259  0.69175250    -0.10000
C1074       C  0.12669912  0.51883883  0.68387926     0.03600
C1075       C  0.11233760  0.51850769  0.66404744    -0.08600
C1076       C  0.09635910  0.99049237  0.65200257     0.06100
C1077       C  0.09481103  0.96272486  0.65979342    -0.08000
H1078       H  0.13651003  0.99154902  0.70702679     0.11700
H1079       H  0.11363196  0.54000656  0.65799044     0.09200
H1080       H  0.08265625  0.94106208  0.65036347     0.09100
C1081       C  0.33605887  0.52309694  0.51348900     0.06100
C1082       C  0.30730639  0.50513850  0.52452744    -0.10000
C1083       C  0.27958801  0.50315361  0.51629025     0.03600
C1084       C  0.28057763  0.51910346  0.49707505    -0.08600
C1085       C  0.30923764  0.53700053  0.48601451     0.06100
C1086       C  0.33700916  0.53904183  0.49421701    -0.08000
H1087       H  0.30641668  0.99240022  0.53926431     0.11700
H1088       H  0.25906598  0.51743083  0.49067436     0.09200
H1089       H  0.35915410  0.55259810  0.48548359     0.09100
C1090       C  0.13904249  0.93166501  0.55058182     0.06100
C1091       C  0.16774023  0.94897193  0.53935960    -0.10000
C1092       C  0.19526889  0.95039013  0.54744952     0.03600
C1093       C  0.19418634  0.93451861  0.56671461    -0.08600
C1094       C  0.16564264  0.91728911  0.57801880     0.06100
C1095       C  0.13801062  0.91581929  0.56996498    -0.08000
H1096       H  0.16874862  0.96166555  0.52457172     0.11700
H1097       H  0.21558161  0.93580168  0.57299910     0.09200
H1098       H  0.11594927  0.90277471  0.57886791     0.09100
C1099       C  0.30537959  0.76551957  0.21764330     0.06100
C1100       C  0.30433023  0.74940107  0.23687887    -0.10000
C1101       C  0.33184819  0.75032378  0.24459233     0.03600
C1102       C  0.36024632  0.76720525  0.23310372    -0.08600
C1103       C  0.36131591  0.78335368  0.21400215     0.06100
C1104       C  0.33393516  0.78253333  0.20623918    -0.08000
H1105       H  0.28238764  0.73664165  0.24595201     0.11700
H1106       H  0.38157361  0.76811876  0.23917174     0.09200
H1107       H  0.33496528  0.79549054  0.19158572     0.09100
C1108       C  0.00221861  0.85664463  0.18076594     0.06100
C1109       C  0.47326034  0.83807591  0.19140822    -0.10000
C1110       C  0.44572284  0.83651728  0.18321983     0.03600
C1111       C  0.44707487  0.85342484  0.16443595    -0.08600
C1112       C  0.47595802  0.87186618  0.15376739     0.06100
C1113       C  0.00356015  0.87354188  0.16192818    -0.08000
H1114       H  0.47209168  0.82461821  0.20581831     0.11700
H1115       H  0.42568511  0.85204467  0.15805093     0.09200
H1116       H  0.02587651  0.88752848  0.15347025     0.09100
C1117       C  0.44101696  0.63020765  0.01561754     0.06100
C1118       C  0.45751263  0.65877969  0.02711558    -0.10000
C1119       C  0.45884114  0.68622900  0.01892984     0.03600
C1120       C  0.44365137  0.68516967  0.99933871    -0.08600
C1121       C  0.42722739  0.65677859  0.98777313     0.06100
C1122       C  0.42584223  0.62923200  0.99590960    -0.08000
H1123       H  0.46979984  0.65980137  0.04211600     0.11700
H1124       H  0.44496881  0.70652397  0.99295010     0.09200
H1125       H  0.41347530  0.60730345  0.98678662     0.09100
C1126       C  0.03406606  0.82804056  0.05079806     0.06100
C1127       C  0.01490478  0.79894160  0.04043751    -0.10000
C1128       C  0.01258829  0.77123270  0.04898930     0.03600
C1129       C  0.02935725  0.77256414  0.06783946    -0.08600
C1130       C  0.04843092  0.80152774  0.07823055     0.06100
C1131       C  0.05089533  0.82932109  0.06969714    -0.08000
H1132       H  0.00148109  0.79778910  0.02601076     0.11700
H1133       H  0.02735440  0.75105270  0.07451610     0.09200
H1134       H  0.06529597  0.85170636  0.07797233     0.09100
C1135       C  0.16877069  0.68764840  0.84633183     0.06100
C1136       C  0.13992493  0.66957994  0.85716861    -0.10000
C1137       C  0.11241533  0.66799177  0.84896757     0.03600
C1138       C  0.11362513  0.68442041  0.82995964    -0.08600
C1139       C  0.14238853  0.70241583  0.81904102     0.06100
C1140       C  0.17002267  0.70406008  0.82721169    -0.08000
H1141       H  0.13882781  0.65656250  0.87180828     0.11700
H1142       H  0.09222828  0.68309162  0.82363659     0.09200
H1143       H  0.19227827  0.71775409  0.81863303     0.09100
C1144       C  0.49946189  0.58495989  0.91202505     0.06100
C1145       C  0.02778667  0.60121674  0.90035350    -0.10000
C1146       C  0.02874505  0.61651510  0.88084163     0.03600
C1147       C  0.50139687  0.61548966  0.87286125    -0.08600
C1148       C  0.47296418  0.59915961  0.88444215     0.06100
C1149       C  0.47197107  0.58390096  0.90409608    -0.08000
H1150       H  0.04909348  0.60220242  0.90653580     0.11700
H1151       H  0.50235432  0.62775232  0.85786139     0.09200
H1152       H  0.45006955  0.57159126  0.91326129     0.09100
O1153       O  0.35667445  0.61683179  0.80918203    -0.77200
O1154       O  0.22114097  0.59168138  0.88412104    -0.78700
O1155       O  0.27553775  0.54519246  0.84772464    -0.75700
O1156       O  0.25629452  0.61027491  0.81037820    -0.74100
O1157       O  0.27759930  0.66412507  0.80990951    -0.75900
O1158       O  0.30530604  0.54964738  0.87788806    -0.76800
O1159       O  0.22523575  0.56726586  0.85334033    -0.78200
O1160       O  0.30276281  0.58434876  0.80885276    -0.78500
Eu1161     Eu  0.28065523  0.59685631  0.84064076     2.39200
O1162       O  0.27306400  0.63768411  0.85372384    -0.86000
O1163       O  0.32985807  0.60480220  0.85291657    -0.89600
C1164       C  0.33068050  0.59435666  0.80104222     1.05100
C1165       C  0.20973221  0.56963166  0.86961139     1.04900
C1166       C  0.28718363  0.53412855  0.86171987     1.04900
C1167       C  0.25931965  0.63609045  0.80237235     1.02700
H1168       H  0.26515435  0.57591080  0.88438121     0.32500
O1169       O  0.28128373  0.59628282  0.87905038    -0.98400
H1170       H  0.32137257  0.64593980  0.81207180     0.32500
O1171       O  0.32160213  0.64583570  0.82783684    -1.00900
O1172       O  0.28736676  0.67423287  0.92315339    -0.78100
O1173       O  0.42236842  0.70029712  0.84789796    -0.77700
O1174       O  0.29395704  0.58107363  0.92250562    -0.76100
O1175       O  0.26726206  0.69142032  0.84885191    -0.79400
O1176       O  0.35055539  0.71058118  0.81009551    -0.77300
O1177       O  0.37608812  0.59848346  0.88284589    -0.75900
O1178       O  0.38611268  0.68046691  0.92277876    -0.77500
O1179       O  0.36904768  0.74653806  0.88394175    -0.79400
O1180       O  0.36527076  0.62666729  0.92287428    -0.76100
O1181       O  0.33949099  0.74212467  0.85365310    -0.78800
O1182       O  0.26133932  0.60226295  0.92336484    -0.74500
O1183       O  0.40048803  0.62777067  0.85229909    -0.74600
O1184       O  0.38322675  0.68944968  0.80912685    -0.74200
O1185       O  0.24266358  0.66173181  0.87919717    -0.77700
O1186       O  0.34121406  0.70709442  0.92336939    -0.77100
O1187       O  0.41811364  0.72460600  0.87868413    -0.75500
Eu1188     Eu  0.27333700  0.63730997  0.89204347     2.39800
Eu1189     Eu  0.37070162  0.65367967  0.84023246     2.39600
Eu1190     Eu  0.33041696  0.60459539  0.89126532     2.38400
Eu1191     Eu  0.31385547  0.68673985  0.84096367     2.39900
Eu1192     Eu  0.36314462  0.69448953  0.89167825     2.39800
O1193       O  0.36282910  0.69460655  0.85330172    -0.89900
O1194       O  0.32246375  0.64536520  0.90426885    -0.88800
C1195       C  0.31332023  0.69689655  0.93123239     1.05300
C1196       C  0.43354203  0.72250836  0.86229991     1.04000
C1197       C  0.27149928  0.58438276  0.93088218     1.03400
C1198       C  0.24479893  0.67966392  0.86303683     1.05400
C1199       C  0.37312852  0.70749472  0.80176613     1.04300
C1200       C  0.39817027  0.60958349  0.86836392     1.03200
C1201       C  0.38282752  0.65452690  0.93084667     1.03200
C1202       C  0.35768383  0.75772906  0.86978572     1.05900
H1203       H  0.39173167  0.65811802  0.88390332     0.33200
O1204       O  0.37136265  0.65396620  0.87865959    -1.02000
H1205       H  0.30959966  0.70239926  0.88485728     0.35300
O1206       O  0.31378039  0.68632358  0.87937205    -1.04600
O1207       O  0.42328287  0.95019117  0.97732466    -0.77200
O1208       O  0.03611789  0.92597947  0.05007030    -0.78700
O1209       O  0.01696252  0.94437314  0.97659216    -0.75700
O1210       O  0.43504576  0.87837636  0.01601889    -0.74100
O1211       O  0.41067498  0.88258213  0.04677959    -0.75900
O1212       O  0.05001654  0.99817508  0.97628238    -0.76800
O1213       O  0.50635158  0.90124535  0.01977213    -0.78200
O1214       O  0.44435946  0.91748135  0.97667720    -0.78500
Eu1215     Eu  0.48033873  0.93068197  0.00770826     2.39200
O1216       O  0.48105565  0.93058188  0.04608730    -0.86000
O1217       O  0.48821586  0.97962000  0.99511800    -0.89600
C1218       C  0.42623350  0.92739803  0.96918701     1.05100
C1219       C  0.02480000  0.90374366  0.03567090     1.04900
C1220       C  0.03977703  0.97020722  0.96854952     1.04900
C1221       C  0.41301862  0.86699845  0.03055334     1.02700
H1222       H  0.04562651  0.96757324  0.01469581     0.32500
O1223       O  0.02938318  0.97153016  0.02015161    -0.98400
H1224       H  0.41894764  0.92225227  0.01545040     0.32500
O1225       O  0.43932670  0.93857332  0.02064732    -1.00900
O1226       O  0.05413183  0.50929455  0.08909555    -0.78100
O1227       O  0.44073348  0.53303073  0.01658826    -0.77700
O1228       O  0.08980615  0.52765821  0.01551879    -0.76100
O1229       O  0.45422766  0.91570624  0.08998606    -0.79400
O1230       O  0.38807752  0.93257708  0.05134273    -0.77300
O1231       O  0.02308536  0.54319470  0.97650009    -0.75900
O1232       O  0.04258887  0.58040482  0.05073635    -0.77500
O1233       O  0.45964889  0.51461168  0.08969184    -0.79400
O1234       O  0.06699992  0.57599748  0.02007504    -0.76100
O1235       O  0.42702174  0.96073395  0.09018400    -0.78800
O1236       O  0.08576601  0.99844608  0.04591313    -0.74500
O1237       O  0.46922608  0.52205494  0.97641383    -0.74600
O1238       O  0.39233401  0.96200137  0.02102669    -0.74200
O1239       O  0.00812393  0.93699464  0.09019035    -0.77700
O1240       O  0.03259989  0.54162800  0.08979524    -0.77100
O1241       O  0.47020637  0.55776523  0.04698604    -0.75500
Eu1242     Eu  0.03024502  0.97194084  0.05850228     2.39800
Eu1243     Eu  0.44733414  0.98747216  0.00810371     2.39600
Eu1244     Eu  0.03732781  0.52065845  0.00762884     2.38400
Eu1245     Eu  0.44006142  0.93825293  0.05897866     2.39900
Eu1246     Eu  0.99661297  0.52842337  0.05882591     2.39800
O1247       O  0.44773985  0.98721724  0.04644123    -0.89900
O1248       O  0.03774483  0.52070777  0.04597707    -0.88800
C1249       C  0.05084144  0.53184628  0.09725342     1.05300
C1250       C  0.45178122  0.55521945  0.03102897     1.04000
C1251       C  0.10127848  0.51672993  0.02979350     1.03400
C1252       C  0.48020507  0.91921871  0.09807293     1.05400
C1253       C  0.37684170  0.94386571  0.03716278     1.04300
C1254       C  0.99707182  0.53973427  0.96845987     1.03200
C1255       C  0.06472064  0.59161962  0.03627051     1.03200
C1256       C  0.43701514  0.98872583  0.09779501     1.05900
H1257       H  0.00057234  0.54902107  0.01514982     0.33200
O1258       O  0.99663502  0.52874951  0.02046436    -1.02000
H1259       H  0.48930348  0.97968109  0.08719202     0.35300
O1260       O  0.48912647  0.97957282  0.07142778    -1.04600
O1261       O  0.38659692  0.67548659  0.42200212    -0.77200
O1262       O  0.27392325  0.69983057  0.34921267    -0.78700
O1263       O  0.37616671  0.74640403  0.38399229    -0.75700
O1264       O  0.29253925  0.68052832  0.42293548    -0.74100
O1265       O  0.26017253  0.62658967  0.42348420    -0.75900
O1266       O  0.40043189  0.74188266  0.35326833    -0.76800
O1267       O  0.30319070  0.72453229  0.37968211    -0.78200
O1268       O  0.36535118  0.70807178  0.42272617    -0.78500
Eu1269     Eu  0.32931804  0.69489598  0.39178970     2.39200
O1270       O  0.28045028  0.65369820  0.37943793    -0.86000
O1271       O  0.37020412  0.68687233  0.37885700    -0.89600
C1272       C  0.38351311  0.69816102  0.43014223     1.05100
C1273       C  0.28489488  0.72202547  0.36362769     1.04900
C1274       C  0.39841528  0.75741876  0.36960514     1.04900
C1275       C  0.27021377  0.65453190  0.43118624     1.02700
H1276       H  0.33378771  0.71571313  0.34801928     0.32500
O1277       O  0.32973210  0.69542505  0.35338380    -0.98400
H1278       H  0.32191173  0.64590026  0.42012376     0.32500
O1279       O  0.32169867  0.64593787  0.40435690    -1.00900
O1280       O  0.25711475  0.61762394  0.31000428    -0.78100
O1281       O  0.36775796  0.59174703  0.38364289    -0.77700
O1282       O  0.35593071  0.70903821  0.30916590    -0.76100
O1283       O  0.22098795  0.59947443  0.38437011    -0.79400
O1284       O  0.28681911  0.58100024  0.42234035    -0.77300
O1285       O  0.42229445  0.69310754  0.34828600    -0.75900
O1286       O  0.34937494  0.61074448  0.30921377    -0.77500
O1287       O  0.26794694  0.54492791  0.34872991    -0.79400
O1288       O  0.38213583  0.66457573  0.30878374    -0.76100
O1289       O  0.24341912  0.54904160  0.37943763    -0.78800
O1290       O  0.30211068  0.68812697  0.30918953    -0.74500
O1291       O  0.41803863  0.66403901  0.37880775    -0.74600
O1292       O  0.34072814  0.60255363  0.42272774    -0.74200
O1293       O  0.22546777  0.62898024  0.35405093    -0.77700
O1294       O  0.27829261  0.58499897  0.30932434    -0.77100
O1295       O  0.33828490  0.56710716  0.35323580    -0.75500
Eu1296     Eu  0.28038198  0.65416408  0.34112064     2.39800
Eu1297     Eu  0.36270310  0.63819899  0.39143315     2.39600
Eu1298     Eu  0.37016883  0.68686871  0.34053122     2.38400
Eu1299     Eu  0.27271754  0.60459381  0.39183894     2.39900
Eu1300     Eu  0.31321103  0.59716852  0.34065494     2.39800
O1301       O  0.31365013  0.59703036  0.37895906    -0.89900
O1302       O  0.32105409  0.64605527  0.32825669    -0.88800
C1303       C  0.26051313  0.59520259  0.30170713     1.05300
C1304       C  0.35627493  0.56937706  0.36937613     1.04000
C1305       C  0.32989932  0.70547833  0.30108301     1.03400
C1306       C  0.20993173  0.61094950  0.37020819     1.05400
C1307       C  0.31276941  0.58433030  0.43037597     1.04300
C1308       C  0.43357311  0.68207949  0.36261494     1.03200
C1309       C  0.37178763  0.63666551  0.30094450     1.03200
C1310       C  0.24594142  0.53349939  0.36325870     1.05900
H1311       H  0.37842734  0.63356439  0.34755573     0.33200
O1312       O  0.36233542  0.63774333  0.35303874    -1.02000
H1313       H  0.25172081  0.58880941  0.34817860     0.35300
O1314       O  0.27207547  0.60504647  0.35347759    -1.04600
O1315       O  0.20842262  0.91158817  0.71726350    -0.77200
O1316       O  0.18293382  0.77571288  0.64270588    -0.78700
O1317       O  0.25505908  0.85838901  0.68109150    -0.75700
O1318       O  0.18900435  0.87483510  0.64236609    -0.74100
O1319       O  0.13512169  0.85348556  0.64207749    -0.75900
O1320       O  0.25095883  0.82939389  0.71161392    -0.76800
O1321       O  0.21562727  0.82957873  0.64224478    -0.78200
O1322       O  0.23330193  0.90693469  0.68694068    -0.78500
Eu1323     Eu  0.20289073  0.85203339  0.67353882     2.39200
O1324       O  0.15384639  0.81094655  0.66108359    -0.86000
O1325       O  0.20294920  0.85229319  0.71185061    -0.89600
C1326       C  0.23103584  0.92251605  0.70318513     1.05100
C1327       C  0.20562203  0.80162099  0.63459538     1.04900
C1328       C  0.26641581  0.84736749  0.69535440     1.04900
C1329       C  0.16301193  0.87127892  0.63420450     1.02700
H1330       H  0.21108943  0.79872794  0.68074929     0.32500
O1331       O  0.19495380  0.80289206  0.68612914    -0.98400
H1332       H  0.16638120  0.88058744  0.68083887     0.32500
O1333       O  0.16226962  0.86029582  0.68623512    -1.00900
O1334       O  0.10037417  0.70987841  0.68202612    -0.78100
O1335       O  0.12501150  0.84633450  0.75557349    -0.77700
O1336       O  0.20025359  0.75693580  0.71710346    -0.76100
O1337       O  0.08951095  0.78198241  0.64297635    -0.79400
O1338       O  0.10680185  0.86485784  0.68158479    -0.77300
O1339       O  0.21930800  0.84117714  0.75506190    -0.75900
O1340       O  0.11984649  0.74672848  0.75559698    -0.77500
O1341       O  0.05395615  0.76519670  0.71781428    -0.79400
O1342       O  0.17378907  0.76852969  0.75598535    -0.76100
O1343       O  0.05827656  0.79440583  0.68735586    -0.78800
O1344       O  0.17079207  0.73194510  0.68675502    -0.74500
O1345       O  0.19748756  0.87324796  0.75583337    -0.74600
O1346       O  0.13587842  0.88958488  0.71212525    -0.74200
O1347       O  0.11074262  0.74939266  0.64241409    -0.77700
O1348       O  0.07589530  0.71433815  0.71265205    -0.77100
O1349       O  0.09293788  0.79239985  0.75653069    -0.75500
Eu1350     Eu  0.14592539  0.76204788  0.67373054     2.39800
Eu1351     Eu  0.16180740  0.86001580  0.72463633     2.39600
Eu1352     Eu  0.19561145  0.80373109  0.72449306     2.38400
Eu1353     Eu  0.11302225  0.81898399  0.67385659     2.39900
Eu1354     Eu  0.10553462  0.76994299  0.72496401     2.39800
O1355       O  0.11306777  0.81877593  0.71219923    -0.89900
O1356       O  0.14653851  0.76243840  0.71205776    -0.88800
C1357       C  0.07829477  0.69862766  0.69652985     1.05300
C1358       C  0.10276980  0.82047600  0.76397936     1.04000
C1359       C  0.18869701  0.73434982  0.70299681     1.03400
C1360       C  0.09284336  0.75946433  0.63478006     1.05400
C1361       C  0.11784643  0.88715186  0.69592733     1.04300
C1362       C  0.21583854  0.86358430  0.76329042     1.03200
C1363       C  0.14586727  0.75027886  0.76367256     1.03200
C1364       C  0.04289626  0.77674568  0.70372317     1.05900
H1365       H  0.15465766  0.81138930  0.75317454     0.33200
O1366       O  0.15447780  0.81131605  0.73740960    -1.02000
H1367       H  0.08448555  0.75381056  0.68129483     0.35300
O1368       O  0.10486250  0.77006205  0.68653613    -1.04600
O1369       O  0.19015160  0.78412082  0.14277950    -0.77200
O1370       O  0.05358572  0.75917198  0.21650070    -0.78700
O1371       O  0.10807880  0.71241678  0.18116232    -0.75700
O1372       O  0.09122603  0.77869142  0.14237798    -0.74100
O1373       O  0.11264800  0.83259251  0.14215949    -0.75900
O1374       O  0.13720748  0.71679694  0.21167664    -0.76800
O1375       O  0.05792641  0.73480237  0.18578081    -0.78200
O1376       O  0.13628954  0.75129642  0.14230557    -0.78500
Eu1377     Eu  0.11363157  0.76430133  0.17348110     2.39200
O1378       O  0.10593504  0.80527262  0.18630556    -0.86000
O1379       O  0.16257908  0.77198536  0.18616179    -0.89600
C1380       C  0.16429942  0.76143487  0.13464420     1.05100
C1381       C  0.04226636  0.73713349  0.20197761     1.04900
C1382       C  0.11923415  0.70123853  0.19548025     1.04900
C1383       C  0.09484852  0.80471400  0.13425790     1.02700
H1384       H  0.09744849  0.74330392  0.21714926     0.32500
O1385       O  0.11370788  0.76365764  0.21186898    -0.98400
H1386       H  0.15522880  0.81366337  0.14534497     0.32500
O1387       O  0.15498795  0.81341480  0.16111223    -1.00900
O1388       O  0.11978885  0.84083918  0.25615829    -0.78100
O1389       O  0.25555712  0.86717356  0.18159917    -0.77700
O1390       O  0.12585373  0.74860333  0.25550657    -0.76100
O1391       O  0.10058179  0.85943964  0.18181443    -0.79400
O1392       O  0.18532284  0.87897150  0.14389570    -0.77300
O1393       O  0.20828036  0.76540555  0.21652654    -0.75900
O1394       O  0.21776860  0.84765635  0.25632700    -0.77500
O1395       O  0.20245034  0.91420291  0.21699126    -0.79400
O1396       O  0.19640803  0.79379020  0.25655853    -0.76100
O1397       O  0.17322381  0.90997129  0.18656718    -0.78800
O1398       O  0.09316374  0.76970406  0.25606329    -0.74500
O1399       O  0.23323038  0.79480531  0.18615557    -0.74600
O1400       O  0.21766807  0.85744218  0.14323624    -0.74200
O1401       O  0.07591626  0.83001592  0.21224096    -0.77700
O1402       O  0.17363034  0.87377535  0.25648316    -0.77100
O1403       O  0.25102836  0.89176417  0.21211772    -0.75500
Eu1404     Eu  0.10578818  0.80473243  0.22465772     2.39800
Eu1405     Eu  0.20377892  0.82086145  0.17383479     2.39600
Eu1406     Eu  0.16264599  0.77188804  0.22449583     2.38400
Eu1407     Eu  0.14720240  0.85449000  0.17398121     2.39900
Eu1408     Eu  0.19580925  0.86186004  0.22479794     2.39800
O1409       O  0.19587196  0.86191264  0.18652514    -0.89900
O1410       O  0.15474079  0.81278381  0.23707923    -0.88800
C1411       C  0.14574210  0.86327928  0.26437563     1.05300
C1412       C  0.26663743  0.88949829  0.19590640     1.04000
C1413       C  0.10331161  0.75188281  0.26372047     1.03400
C1414       C  0.07822988  0.84803028  0.19612084     1.05400
C1415       C  0.20811540  0.87592604  0.13591633     1.04300
C1416       C  0.23058960  0.77648197  0.20219821     1.03200
C1417       C  0.21393358  0.82160993  0.26457893     1.03200
C1418       C  0.19148317  0.92557341  0.20267253     1.05900
H1419       H  0.22434532  0.82521816  0.21765997     0.33200
O1420       O  0.20408796  0.82118460  0.21221884    -1.02000
H1421       H  0.14248328  0.87010944  0.21781724     0.35300
O1422       O  0.14656463  0.85395141  0.21235445    -1.04600
O1423       O  0.45304738  0.50728427  0.58873029    -0.77200
O1424       O  0.08904817  0.53222250  0.51464058    -0.78700
O1425       O  0.05268413  0.51385552  0.58833827    -0.75700
O1426       O  0.03588834  0.57995595  0.54948769    -0.74100
O1427       O  0.00671186  0.57562864  0.51901474    -0.75900
O1428       O  0.03182020  0.96005375  0.58848902    -0.76800
O1429       O  0.08449975  0.55703734  0.54503924    -0.78200
O1430       O  0.00690737  0.54004246  0.58913878    -0.78500
Eu1431     Eu  0.02926131  0.52765630  0.55753581     2.39200
O1432       O  0.02944930  0.52765845  0.51918978    -0.86000
O1433       O  0.48828689  0.97862495  0.57007704    -0.89600
C1434       C  0.47895883  0.52980506  0.59693171     1.05100
C1435       C  0.10019892  0.55446339  0.52902319     1.04900
C1436       C  0.04970116  0.98798437  0.59625902     1.04900
C1437       C  0.02487790  0.59124921  0.53513561     1.02700
H1438       H  0.05766498  0.49085471  0.55008609     0.32500
O1439       O  0.03736455  0.98690570  0.54480586    -0.98400
H1440       H  0.47611114  0.53601353  0.55043162     0.32500
O1441       O  0.48014436  0.51979267  0.54503460    -1.00900
O1442       O  0.02320300  0.94946563  0.47566363    -0.78100
O1443       O  0.38708240  0.92510072  0.54948289    -0.77700
O1444       O  0.04158467  0.93077325  0.54905173    -0.76100
O1445       O  0.01794913  0.54363537  0.47610691    -0.79400
O1446       O  0.43439731  0.52566530  0.51462091    -0.77300
O1447       O  0.45974851  0.91463040  0.58837857    -0.75900
O1448       O  0.44102415  0.87814087  0.51415275    -0.77500
O1449       O  0.42359243  0.94430028  0.47578802    -0.79400
O1450       O  0.47037699  0.88260484  0.54456393    -0.76100
O1451       O  0.44537853  0.99823291  0.47533933    -0.78800
O1452       O  0.06637968  0.95999172  0.51859357    -0.74500
O1453       O  0.42694515  0.93561895  0.58878218    -0.74600
O1454       O  0.40964311  0.99629907  0.54504454    -0.74200
O1455       O  0.05018352  0.52198554  0.47533504    -0.77700
O1456       O  0.46925186  0.91722023  0.47501679    -0.77100
O1457       O  0.39129818  0.90043591  0.51888524    -0.75500
Eu1458     Eu  0.03705212  0.98636497  0.50649577     2.39800
Eu1459     Eu  0.43935692  0.97078227  0.55749551     2.39600
Eu1460     Eu  0.49624411  0.93774103  0.55726395     2.38400
Eu1461     Eu  0.48067622  0.52014762  0.50670066     2.39900
Eu1462     Eu  0.44683378  0.93006342  0.50640434     2.39800
O1463       O  0.43928833  0.97113630  0.51915730    -0.89900
O1464       O  0.49580970  0.93754835  0.51892428    -0.88800
C1465       C  0.99726449  0.92708839  0.46745109     1.05300
C1466       C  0.37574606  0.90283226  0.53511431     1.04000
C1467       C  0.06381117  0.94171354  0.53465547     1.03400
C1468       C  0.04038847  0.54022715  0.46789625     1.05400
C1469       C  0.41205823  0.51439442  0.52893989     1.04300
C1470       C  0.43712060  0.91784924  0.59649019     1.03200
C1471       C  0.45225122  0.86700804  0.52844495     1.03200
C1472       C  0.42712169  0.97029825  0.46771637     1.05900
H1473       H  0.43106957  0.90941493  0.55009355     0.33200
O1474       O  0.44732054  0.92973457  0.54475726    -1.02000
H1475       H  0.48821965  0.97905376  0.47809155     0.35300
O1476       O  0.48821939  0.97895336  0.49385735    -1.04600
C1477       C  0.99889794  0.55663344  0.94890210    -0.10300
C1478       C  0.49895997  0.56968616  0.93220330    -0.11900
C1479       C  0.44544599  0.59984244  0.87677358    -0.10300
C1480       C  0.42331101  0.60286733  0.87151709    -0.11900
C1481       C  0.14329592  0.71889672  0.79936338    -0.10300
C1482       C  0.14385956  0.73279346  0.78296908    -0.11900
C1483       C  0.21913764  0.68549643  0.85955366    -0.10300
C1484       C  0.19660435  0.68776408  0.85418642    -0.11900
C1485       C  0.08285277  0.64936865  0.86000243    -0.10300
C1486       C  0.05807849  0.63409302  0.86935268    -0.11900
C1487       C  0.06468469  0.80237483  0.09799959    -0.10300
C1488       C  0.07805452  0.80279113  0.11462406    -0.11900
C1489       C  0.03170316  0.87864894  0.03849352    -0.10300
C1490       C  0.03428198  0.85605158  0.04316939    -0.11900
C1491       C  0.44172881  0.60257169  0.02316999    -0.10300
C1492       C  0.44475587  0.58026188  0.02804046    -0.11900
C1493       C  0.41234360  0.65635272  0.96738661    -0.10300
C1494       C  0.39962519  0.65640139  0.95052199    -0.11900
C1495       C  0.49283160  0.74124935  0.03863759    -0.10300
C1496       C  0.47695143  0.71592972  0.03001398    -0.11900
C1497       C  0.05284016  0.85434213  0.19298336    -0.10300
C1498       C  0.03012287  0.85663441  0.18825326    -0.11900
C1499       C  0.47706826  0.88846531  0.13415367    -0.10300
C1500       C  0.47805463  0.90223879  0.11762409    -0.11900
C1501       C  0.33144609  0.73472900  0.26457750    -0.10300
C1502       C  0.33159685  0.72187918  0.28131452    -0.11900
C1503       C  0.25559109  0.76953727  0.20540602    -0.10300
C1504       C  0.27778835  0.76641519  0.21035052    -0.11900
C1505       C  0.39085983  0.80162568  0.20283369    -0.10300
C1506       C  0.41593633  0.81734549  0.19390775    -0.11900
C1507       C  0.16507351  0.90155360  0.59801966    -0.10300
C1508       C  0.16492662  0.88827242  0.61464367    -0.11900
C1509       C  0.11124600  0.93199129  0.54296218    -0.10300
C1510       C  0.08888422  0.93480171  0.53786880    -0.11900
C1511       C  0.30996127  0.55298148  0.46613176    -0.10300
C1512       C  0.31062080  0.56672676  0.44963791    -0.11900
C1513       C  0.36408036  0.52327360  0.52102321    -0.10300
C1514       C  0.38677442  0.52092393  0.52580129    -0.11900
C1515       C  0.22489571  0.96876025  0.53632878    -0.10300
C1516       C  0.24993890  0.98436149  0.52729548    -0.11900
C1517       C  0.10904701  0.93504155  0.68730267    -0.10300
C1518       C  0.11142033  0.91247860  0.69248677    -0.11900
C1519       C  0.06751403  0.99011523  0.61540815    -0.10300
C1520       C  0.08115228  0.99032667  0.63185531    -0.11900
C1521       C  0.19470346  0.70883697  0.70661163    -0.10300
C1522       C  0.19685987  0.68621618  0.71188461    -0.11900
C1523       C  0.24118436  0.63362563  0.78331448    -0.10300
C1524       C  0.22689290  0.63256215  0.76699829    -0.11900
C1525       C  0.14376352  0.54786056  0.69587038    -0.10300
C1526       C  0.15860847  0.57245379  0.70555340    -0.11900
C1527       C  0.36485590  0.52135254  0.37760704    -0.10300
C1528       C  0.36249200  0.54395045  0.37264039    -0.11900
C1529       C  0.40959336  0.96827274  0.44850437    -0.10300
C1530       C  0.39575515  0.96781963  0.43214436    -0.11900
C1531       C  0.27441414  0.76906512  0.35556972    -0.10300
C1532       C  0.27776716  0.74697873  0.36051668    -0.11900
C1533       C  0.24303736  0.82307123  0.30119861    -0.10300
C1534       C  0.23024633  0.82331398  0.28443150    -0.11900
C1535       C  0.32679793  0.90755321  0.37142270    -0.10300
C1536       C  0.31104832  0.88248042  0.36251929    -0.11900
C1537       C  0.42169520  0.99094059  0.11704083    -0.10300
C1538       C  0.40836816  0.99140883  0.13342320    -0.11900
C1539       C  0.32341569  0.93748920  0.18765979    -0.10300
C1540       C  0.29838132  0.91488585  0.19261015    -0.11900
C1541       C  0.38660224  0.63472920  0.28130244    -0.10300
C1542       C  0.39985931  0.63501136  0.26466016    -0.11900
C1543       C  0.48495904  0.68981967  0.21021325    -0.10300
C1544       C  0.01025146  0.71206740  0.20516456    -0.11900
C1545       C  0.40835354  0.57638818  0.20293873    -0.10300
C1546       C  0.39904868  0.55136392  0.19399947    -0.11900
C1547       C  0.46528015  0.68848394  0.35917018    -0.10300
C1548       C  0.49010308  0.69065283  0.35398319    -0.11900
C1549       C  0.08808357  0.73442440  0.28304209    -0.10300
C1550       C  0.07459387  0.72065486  0.29941218    -0.11900
C1551       C  0.05560984  0.55784426  0.44869023    -0.10300
C1552       C  0.06859937  0.57164073  0.43224471    -0.11900
C1553       C  0.17828971  0.60468457  0.37352570    -0.10300
C1554       C  0.15326583  0.60237534  0.37819297    -0.11900
C1555       C  0.07511496  0.63703264  0.36979889    -0.10300
C1556       C  0.06527937  0.65200628  0.36046360    -0.11900
C1557       C  0.34505819  0.93733519  0.04048210    -0.10300
C1558       C  0.32010072  0.93515806  0.04528152    -0.11900
C1559       C  0.22407855  0.89416300  0.11708423    -0.10300
C1560       C  0.23759828  0.90791192  0.10075583    -0.11900
C1561       C  0.24265718  0.55378653  0.96673771    -0.10300
C1562       C  0.25632598  0.56699479  0.95025671    -0.11900
C1563       C  0.15824499  0.52594626  0.02134580    -0.10300
C1564       C  0.13322474  0.52356648  0.02637725    -0.11900
C1565       C  0.24401883  0.97291609  0.03830884    -0.10300
C1566       C  0.23405938  0.98798724  0.02924074    -0.11900
C1567       C  0.23520704  0.79980442  0.59914694    -0.10300
C1568       C  0.22130208  0.79961184  0.61543107    -0.11900
C1569       C  0.31916873  0.85473337  0.54395955    -0.10300
C1570       C  0.34398049  0.87741788  0.53861681    -0.11900
C1571       C  0.15759679  0.60186451  0.52162779    -0.10300
C1572       C  0.13223094  0.57940701  0.52612420    -0.11900
C1573       C  0.25537040  0.65648079  0.45076472    -0.10300
C1574       C  0.24235471  0.65648804  0.46742629    -0.11900
C1575       C  0.24346152  0.74069594  0.53769158    -0.10300
C1576       C  0.23378190  0.71558815  0.52877822    -0.11900
C1577       C  0.38828677  0.72536537  0.78258668    -0.10300
C1578       C  0.40166382  0.73949010  0.76630230    -0.11900
C1579       C  0.01153680  0.77114067  0.70747775    -0.10300
C1580       C  0.48691397  0.76947116  0.71258086    -0.11900
C1581       C  0.32315486  0.85646848  0.68648676    -0.10300
C1582       C  0.29814549  0.85383757  0.69175462    -0.11900
C1583       C  0.40822159  0.88687720  0.63217173    -0.10300
C1584       C  0.42179257  0.90040890  0.61577047    -0.11900
C1585       C  0.40145785  0.82216261  0.69501363    -0.10300
C1586       C  0.41130707  0.80739290  0.70460137    -0.11900
C1587       C  0.17781099  0.54456052  0.87289123    -0.10300
C1588       C  0.15266617  0.52221841  0.87800495    -0.11900
C1589       C  0.06867148  0.96756292  0.93298201    -0.10300
C1590       C  0.05523440  0.96795526  0.94935291    -0.11900
C1591       C  0.49012843  0.77069598  0.85404456    -0.10300
C1592       C  0.46518763  0.74798005  0.85895759    -0.11900
C1593       C  0.07485423  0.82417557  0.79976680    -0.10300
C1594       C  0.08777482  0.82297961  0.78335361    -0.11900
C1595       C  0.06567505  0.88451323  0.86055092    -0.10300
C1596       C  0.07518006  0.90918403  0.87006480    -0.11900
C1597       C  0.24341514  0.58022878  0.28225571    -0.10300
C1598       C  0.23036915  0.56692690  0.26566878    -0.11900
C1599       C  0.19841040  0.95755038  0.20594408    -0.10300
C1600       C  0.20118395  0.98275021  0.21086975    -0.11900
C1601       C  0.06845157  0.54722227  0.11646243    -0.10300
C1602       C  0.08181277  0.56046267  0.13298399    -0.11900
C1603       C  0.11014311  0.64427199  0.18765209    -0.10300
C1604       C  0.11262073  0.66940274  0.19229909    -0.11900
C1605       C  0.14806941  0.56848055  0.19511233    -0.10300
C1606       C  0.16354658  0.55884897  0.20399404    -0.11900
C1607       C  0.22112606  0.50147049  0.36010028    -0.10300
C1608       C  0.19896588  0.97620094  0.35503117    -0.11900
C1609       C  0.14430872  0.89128871  0.30064305    -0.10300
C1610       C  0.14389642  0.87799380  0.28402741    -0.11900
C1611       C  0.50027635  0.89896627  0.43167953    -0.10300
C1612       C  0.49951663  0.91199179  0.44812130    -0.11900
C1613       C  0.44680091  0.81397603  0.37765431    -0.10300
C1614       C  0.42402073  0.78900677  0.37288336    -0.11900
C1615       C  0.06040148  0.89059288  0.37085453    -0.10300
C1616       C  0.08543832  0.90013635  0.36190132    -0.11900
C1617       C  0.08990740  0.62355961  0.03934687    -0.10300
C1618       C  0.11248316  0.64874296  0.04411921    -0.11900
C1619       C  0.16654061  0.74629469  0.11525994    -0.10300
C1620       C  0.16692650  0.73318193  0.09871554    -0.11900
C1621       C  0.31122266  0.72569705  0.96707226    -0.10300
C1622       C  0.31135902  0.71221830  0.95063422    -0.11900
C1623       C  0.36535112  0.81009061  0.02201888    -0.10300
C1624       C  0.38784057  0.83508736  0.02726602    -0.11900
C1625       C  0.22636974  0.72479341  0.03724994    -0.10300
C1626       C  0.25137695  0.73429638  0.02817836    -0.11900
C1627       C  0.06261976  0.73139846  0.59868156    -0.10300
C1628       C  0.07560596  0.74436450  0.61537710    -0.11900
C1629       C  0.03152083  0.62311505  0.53840526    -0.10300
C1630       C  0.03404124  0.64821021  0.54330095    -0.11900
C1631       C  0.44388430  0.81046298  0.52036169    -0.10300
C1632       C  0.44578123  0.83525987  0.52521908    -0.11900
C1633       C  0.41548221  0.72704777  0.46549760    -0.10300
C1634       C  0.40145439  0.71362122  0.44921034    -0.11900
C1635       C  0.48504670  0.73708597  0.52609041    -0.10300
C1636       C  0.00009263  0.72710881  0.53518278    -0.11900
C1637       C  0.36386536  0.78938186  0.87340640    -0.10300
C1638       C  0.36593050  0.81414991  0.87871071    -0.11900
C1639       C  0.39404779  0.89786940  0.93386332    -0.10300
C1640       C  0.40804630  0.91160605  0.95015171    -0.11900
C1641       C  0.24731722  0.89224046  0.79894606    -0.10300
C1642       C  0.23348867  0.87895751  0.78253195    -0.11900
C1643       C  0.27835883  0.97749785  0.85297808    -0.10300
C1644       C  0.28091129  0.50250146  0.85809976    -0.11900
C1645       C  0.31460377  0.90061776  0.86089052    -0.10300
C1646       C  0.32934372  0.89082290  0.87062613    -0.11900
C1647       C  0.03103161  0.64127012  0.68849421    -0.10300
C1648       C  0.05325885  0.66661203  0.69343519    -0.11900
C1649       C  0.47670804  0.55748907  0.63328127    -0.10300
C1650       C  0.47687993  0.54469780  0.61651081    -0.11900
C1651       C  0.27934684  0.97888774  0.71204737    -0.10300
C1652       C  0.25671228  0.95401736  0.70683407    -0.11900
C1653       C  0.33316214  0.56562996  0.76526611    -0.10300
C1654       C  0.33269761  0.57914980  0.78159250    -0.11900
C1655       C  0.39340939  0.55357044  0.70578827    -0.10300
C1656       C  0.41824341  0.56281132  0.69654604    -0.11900
C1657       C  0.80733644  0.00685299  0.71952578     0.06100
C1658       C  0.83619857  0.01694341  0.70885655    -0.10000
C1659       C  0.86380576  0.04321682  0.71667131     0.03600
C1660       C  0.86265653  0.05943263  0.73514382    -0.08600
C1661       C  0.83390410  0.04932703  0.74592194     0.06100
C1662       C  0.80618171  0.02303059  0.73810902    -0.08000
H1663       H  0.83722136  0.00425075  0.69463846     0.11700
H1664       H  0.88411724  0.07972398  0.74120048     0.09200
H1665       H  0.78393702  0.01498067  0.74658652     0.09100
C1666       C  0.50337794  0.11286103  0.68110826     0.06100
C1667       C  0.97508263  0.10072433  0.69289145    -0.10000
C1668       C  0.94755839  0.07440871  0.68500768     0.03600
C1669       C  0.94824815  0.06009852  0.66540974    -0.08600
C1670       C  0.97643398  0.07215976  0.65356731     0.06100
C1671       C  0.50405724  0.09856363  0.66140096    -0.08000
H1672       H  0.97433674  0.11207219  0.70791979     0.11700
H1673       H  0.92682376  0.03984309  0.65927145     0.09200
H1674       H  0.52582404  0.10817324  0.65208001     0.09100
C1675       C  0.77815862  0.44942646  0.84560155     0.06100
C1676       C  0.79551881  0.43832082  0.85700652    -0.10000
C1677       C  0.79676572  0.41199423  0.84927334     0.03600
C1678       C  0.78074726  0.39676924  0.83014278    -0.08600
C1679       C  0.76346318  0.40786258  0.81868540     0.06100
C1680       C  0.76211366  0.43419170  0.82640234    -0.08000
H1681       H  0.80823281  0.45028051  0.87172937     0.11700
H1682       H  0.78181080  0.37641505  0.82415695     0.09200
H1683       H  0.74893556  0.44295884  0.81740691     0.09100
C1684       C  0.86542148  0.34180897  0.88636188     0.06100
C1685       C  0.88022499  0.35629636  0.90609083    -0.10000
C1686       C  0.87832337  0.38229750  0.91394530     0.03600
C1687       C  0.86151818  0.39363725  0.90215917    -0.08600
C1688       C  0.84674555  0.37918976  0.88251945     0.06100
C1689       C  0.84868982  0.35332043  0.87459956    -0.05000
H1690       H  0.89304746  0.34733435  0.91530425     0.11700
H1691       H  0.86000485  0.41370929  0.90822595     0.09200
H1692       H  0.83696658  0.34200428  0.85945639     0.09100
C1693       C  0.94486629  0.28314089  0.51268340     0.06100
C1694       C  0.96352090  0.27303813  0.52353400    -0.10000
C1695       C  0.96616978  0.24778267  0.51512837     0.03600
C1696       C  0.95027163  0.23266442  0.49596679    -0.08600
C1697       C  0.93168427  0.24272702  0.48514814     0.06100
C1698       C  0.92893221  0.26795734  0.49346470    -0.08000
H1699       H  0.97616051  0.28496230  0.53828451     0.11700
H1700       H  0.95236160  0.21311214  0.48948945     0.09200
H1701       H  0.91477052  0.27595928  0.48489403     0.09100
C1702       C  0.54781588  0.21679052  0.57839780     0.06100
C1703       C  0.54906840  0.19045778  0.57057244    -0.10000
C1704       C  0.53438675  0.17637478  0.55074599     0.03600
C1705       C  0.51842446  0.18866106  0.53886095    -0.08600
C1706       C  0.51727460  0.21498984  0.54677658     0.06100
C1707       C  0.53200369  0.22904618  0.56647683    -0.08000
H1708       H  0.56110951  0.18079588  0.57995905     0.11700
H1709       H  0.00657299  0.17752474  0.52371401     0.09200
H1710       H  0.53092688  0.24932841  0.57261598     0.09100
C1711       C  0.83739090  0.28226762  0.01424869     0.06100
C1712       C  0.83840086  0.26723716  0.99498167    -0.10000
C1713       C  0.81065241  0.24125631  0.98685888     0.03600
C1714       C  0.78202564  0.23037490  0.99795902    -0.08600
C1715       C  0.78098966  0.24538191  0.01711143     0.06100
C1716       C  0.80861915  0.27131517  0.02527046    -0.08000
H1717       H  0.86054967  0.27589380  0.98625388     0.11700
H1718       H  0.76055697  0.21035046  0.99164963     0.09200
H1719       H  0.80766249  0.28313449  0.03999637     0.09100
C1720       C  0.64046645  0.17680054  0.05153481     0.06100
C1721       C  0.66912092  0.18777439  0.04034174    -0.10000
C1722       C  0.69681792  0.21376633  0.04838945     0.03600
C1723       C  0.69593919  0.22879462  0.06757849    -0.08600
C1724       C  0.66741153  0.21785681  0.07881582     0.06100
C1725       C  0.63962398  0.19187430  0.07080080    -0.08000
H1726       H  0.66995539  0.17587657  0.02562229     0.11700
H1727       H  0.71745453  0.24881586  0.07383639     0.09200
H1728       H  0.61757515  0.18315866  0.07967015     0.09100
C1729       C  0.97467036  0.34204066  0.38503698     0.06100
C1730       C  0.00336413  0.35311601  0.37390851    -0.10000
C1731       C  0.53082853  0.37944022  0.38186134     0.03600
C1732       C  0.52970873  0.39467861  0.40084894    -0.08600
C1733       C  0.00111713  0.38355003  0.41199634     0.06100
C1734       C  0.97355546  0.35724844  0.40412126    -0.08000
H1735       H  0.00439719  0.34110531  0.35930850     0.11700
H1736       H  0.55106849  0.41498111  0.40702148     0.09200
H1737       H  0.95144840  0.34844489  0.41293358     0.09100
C1738       C  0.67115649  0.44807266  0.34758787     0.06100
C1739       C  0.67200473  0.43288393  0.32836938    -0.10000
C1740       C  0.64418582  0.40675673  0.32050328     0.03600
C1741       C  0.61574254  0.39586010  0.33176917    -0.08600
C1742       C  0.61492280  0.41106315  0.35083543     0.06100
C1743       C  0.64255313  0.43713860  0.35879211    -0.08000
H1744       H  0.69400638  0.44160236  0.31944170     0.11700
H1745       H  0.59420886  0.37576394  0.32559367     0.09200
H1746       H  0.64170052  0.44914570  0.37344908     0.09100
C1747       C  0.61023837  0.11628987  0.18039866     0.06100
C1748       C  0.62757866  0.10523050  0.19192411    -0.10000
C1749       C  0.62963304  0.07945558  0.18389788     0.03600
C1750       C  0.61436401  0.06467946  0.16450001    -0.08600
C1751       C  0.59709378  0.07567161  0.15299398     0.06100
C1752       C  0.59495955  0.10146380  0.16090492    -0.08000
H1753       H  0.63986524  0.11695711  0.20682098     0.11700
H1754       H  0.61613297  0.04481871  0.15827758     0.09200
H1755       H  0.58187641  0.11022387  0.15178520     0.09100
C1756       C  0.71500639  0.05165842  0.24568569     0.06100
C1757       C  0.69762979  0.06265540  0.23433703    -0.10000
C1758       C  0.68204203  0.04781157  0.21505382     0.03600
C1759       C  0.68387569  0.02194476  0.20696233    -0.08600
C1760       C  0.70132436  0.01083222  0.21829762     0.06100
C1761       C  0.71693993  0.02574860  0.23771253    -0.08000
H1762       H  0.69600080  0.08257298  0.24061092     0.11700
H1763       H  0.67134057  0.01019275  0.19214167     0.09200
H1764       H  0.73009414  0.01696911  0.24672042     0.09100
C1765       C  0.51798013  0.29865343  0.84650490     0.06100
C1766       C  0.52868311  0.32741219  0.85744758    -0.10000
C1767       C  0.55470141  0.35501846  0.84936914     0.03600
C1768       C  0.57002281  0.35392890  0.83036511    -0.08600
C1769       C  0.55930134  0.32520434  0.81939767     0.06100
C1770       C  0.53327792  0.29755023  0.82745991    -0.08000
H1771       H  0.51663842  0.32836475  0.87205647     0.11700
H1772       H  0.59014246  0.37535487  0.82410731     0.09200
H1773       H  0.52475990  0.27535177  0.81882414     0.09100
C1774       C  0.62462078  0.99435223  0.88553406     0.06100
C1775       C  0.61019066  0.99493045  0.90519529    -0.10000
C1776       C  0.58398408  0.46717818  0.91305102     0.03600
C1777       C  0.57235801  0.43892776  0.90134710    -0.08600
C1778       C  0.58678235  0.43836711  0.88176787     0.06100
C1779       C  0.61285951  0.46603857  0.87383644    -0.08000
H1780       H  0.61941744  0.01676686  0.91439026     0.11700
H1781       H  0.55217237  0.41743456  0.90746912     0.09200
H1782       H  0.62422856  0.46543631  0.85877909     0.09100
C1783       C  0.89270300  0.37118102  0.65202415     0.06100
C1784       C  0.86609252  0.37220152  0.65956387    -0.10000
C1785       C  0.85131670  0.35682016  0.67906828     0.03600
C1786       C  0.86311188  0.34038540  0.69086531    -0.08600
C1787       C  0.88964043  0.33942714  0.68323429     0.06100
C1788       C  0.90443712  0.35482757  0.66387295    -0.08000
H1789       H  0.85684728  0.38469455  0.65026056     0.11700
H1790       H  0.85151117  0.32812597  0.70579944     0.09200
H1791       H  0.92496448  0.35397781  0.65799491     0.09100
C1792       C  0.95926269  0.27007161  0.71996694     0.06100
C1793       C  0.94384863  0.25417022  0.73914172    -0.10000
C1794       C  0.91764310  0.25581914  0.74674016     0.03600
C1795       C  0.90690906  0.27336174  0.73525996    -0.08600
C1796       C  0.92239266  0.28934660  0.71620018     0.06100
C1797       C  0.94856502  0.28774931  0.70852000    -0.08000
H1798       H  0.95228789  0.24072487  0.74815640     0.11700
H1799       H  0.88660805  0.27461362  0.74115445     0.09200
H1800       H  0.96065270  0.30034927  0.69379737     0.09100
C1801       C  0.68586175  0.12975611  0.51446824     0.06100
C1802       C  0.69676821  0.15834841  0.52571395    -0.10000
C1803       C  0.72282434  0.18603621  0.51773573     0.03600
C1804       C  0.73797610  0.18521549  0.49862049    -0.08600
C1805       C  0.72709667  0.15675781  0.48736406     0.06100
C1806       C  0.70107328  0.12895329  0.49527397    -0.08000
H1807       H  0.68472835  0.15915929  0.54036598     0.11700
H1808       H  0.75800281  0.20675449  0.49239436     0.09200
H1809       H  0.69235882  0.10696448  0.48633513     0.09100
C1810       C  0.79154172  0.32661672  0.55180125     0.06100
C1811       C  0.78044667  0.29796413  0.54059017    -0.10000
C1812       C  0.75467655  0.27024140  0.54880261     0.03600
C1813       C  0.73993514  0.27104543  0.56812528    -0.08600
C1814       C  0.75088828  0.29951999  0.57937326     0.06100
C1815       C  0.77676149  0.32737773  0.57127142    -0.08000
H1816       H  0.79202839  0.29716694  0.52569385     0.11700
H1817       H  0.71999343  0.24950352  0.57443140     0.09200
H1818       H  0.78545131  0.34942724  0.58012224     0.09100
C1819       C  0.68609414  0.02551634  0.01396648     0.06100
C1820       C  0.70105881  0.04063796  0.99441945    -0.10000
C1821       C  0.72698362  0.03848490  0.98668289     0.03600
C1822       C  0.73784521  0.02126229  0.99837892    -0.08600
C1823       C  0.72293793  0.00612294  0.01777131     0.06100
C1824       C  0.69710690  0.00823683  0.02563405    -0.08000
H1825       H  0.69241165  0.05372270  0.98519111     0.11700
H1826       H  0.75780238  0.01950527  0.99233426     0.09200
H1827       H  0.68537332  0.49613808  0.04057856     0.09100
C1828       C  0.79242908  0.43561714  0.05284003     0.06100
C1829       C  0.77819369  0.42086907  0.07258936    -0.10000
C1830       C  0.75263598  0.42320909  0.08073821     0.03600
C1831       C  0.74133368  0.44022824  0.06926737    -0.08600
C1832       C  0.75550208  0.45496344  0.04960514     0.06100
C1833       C  0.78102663  0.45266213  0.04130808    -0.08000
H1834       H  0.78714228  0.40791790  0.08166801     0.11700
H1835       H  0.72159140  0.44207151  0.07566109     0.09200
H1836       H  0.79225718  0.46447906  0.02617424     0.09100
C1837       C  0.62510116  0.10204158  0.38539161     0.06100
C1838       C  0.61340459  0.11865194  0.37369026    -0.10000
C1839       C  0.58685960  0.11954984  0.38139027     0.03600
C1840       C  0.57203411  0.10393582  0.40070409    -0.08600
C1841       C  0.58380063  0.08747918  0.41240378     0.06100
C1842       C  0.61033013  0.08650204  0.40479308    -0.08000
H1843       H  0.62509114  0.13109421  0.35882749     0.11700
H1844       H  0.55152557  0.10474090  0.40667249     0.09200
H1845       H  0.61958145  0.07393552  0.41401127     0.09100
C1846       C  0.51772815  0.19021899  0.34629299     0.06100
C1847       C  0.53295327  0.20632404  0.32710350    -0.10000
C1848       C  0.55883380  0.20439929  0.31907230     0.03600
C1849       C  0.56943815  0.18645214  0.33016077    -0.08600
C1850       C  0.55421992  0.17036516  0.34924761     0.06100
C1851       C  0.52836085  0.17217909  0.35733757    -0.08000
H1852       H  0.52454602  0.22002029  0.31837671     0.11700
H1853       H  0.58945484  0.18496139  0.32393183     0.09200
H1854       H  0.51642226  0.15941401  0.37204982     0.09100
C1855       C  0.95666293  0.16199623  0.21759013     0.06100
C1856       C  0.94545900  0.13348557  0.20620700    -0.10000
C1857       C  0.91928537  0.10584571  0.21408771     0.03600
C1858       C  0.90418340  0.10658258  0.23325205    -0.08600
C1859       C  0.91527989  0.13492716  0.24470356     0.06100
C1860       C  0.94154754  0.16272609  0.23690253    -0.08000
H1861       H  0.95738518  0.13268962  0.19148883     0.11700
H1862       H  0.88403420  0.08504982  0.23937184     0.09200
H1863       H  0.95043260  0.18463754  0.24595628     0.09100
C1864       C  0.85139710  0.46541101  0.18016262     0.06100
C1865       C  0.86219823  0.49415089  0.19117005    -0.10000
C1866       C  0.88826550  0.02174135  0.18311213     0.03600
C1867       C  0.90359140  0.02068987  0.16414669    -0.08600
C1868       C  0.89278043  0.49207242  0.15309535     0.06100
C1869       C  0.86667936  0.46437699  0.16106928    -0.08000
H1870       H  0.85012226  0.49512867  0.20575248     0.11700
H1871       H  0.92371381  0.04213744  0.15790434     0.09200
H1872       H  0.85808387  0.44225022  0.15232823     0.09100
C1873       C  0.75865703  0.32337691  0.32118867     0.06100
C1874       C  0.77611924  0.35187000  0.33247105    -0.10000
C1875       C  0.79234040  0.35288443  0.35152407     0.03600
C1876       C  0.79105646  0.32536999  0.35945562    -0.08600
C1877       C  0.77356037  0.29671157  0.34824789     0.06100
C1878       C  0.75728997  0.29570641  0.32907099    -0.08000
H1879       H  0.77741415  0.37331230  0.32628397     0.11700
H1880       H  0.80410247  0.32638639  0.37406092     0.09200
H1881       H  0.74415525  0.27369780  0.32013221     0.09100
C1882       C  0.86489526  0.49350636  0.38519639     0.06100
C1883       C  0.88107560  0.99464498  0.40438935    -0.10000
C1884       C  0.87947786  0.46702218  0.41245069     0.03600
C1885       C  0.86176054  0.43836346  0.40140865    -0.08600
C1886       C  0.84553592  0.43721451  0.38232591     0.06100
C1887       C  0.84709204  0.46474828  0.37416976    -0.08000
H1888       H  0.89453417  0.01680220  0.41312148     0.11700
H1889       H  0.86042937  0.41696947  0.40772858     0.09200
H1890       H  0.83416275  0.46371107  0.35949719     0.09100
C1891       C  0.71050300  0.13160247  0.74724565     0.06100
C1892       C  0.69271945  0.10292085  0.73616021    -0.10000
C1893       C  0.67683396  0.10189942  0.71688716     0.03600
C1894       C  0.67872930  0.12953928  0.70864520    -0.08600
C1895       C  0.69651237  0.15826149  0.71969799     0.06100
C1896       C  0.71239295  0.15929818  0.73902788    -0.08000
H1897       H  0.69124383  0.08147885  0.74250464     0.11700
H1898       H  0.66617236  0.12864128  0.69380640     0.09200
H1899       H  0.72592871  0.18147645  0.74772114     0.09100
C1900       C  0.60912907  0.46302780  0.67973184     0.06100
C1901       C  0.62506377  0.49113261  0.69175249    -0.10000
C1902       C  0.62669915  0.01883881  0.68387925     0.03600
C1903       C  0.61233760  0.01850766  0.66404744    -0.08600
C1904       C  0.59635916  0.49049243  0.65200258     0.06100
C1905       C  0.59481106  0.46272491  0.65979343    -0.08000
H1906       H  0.63651006  0.49154905  0.70702678     0.11700
H1907       H  0.61363193  0.04000651  0.65799043     0.09200
H1908       H  0.58265622  0.44106213  0.65036349     0.09100
C1909       C  0.83605887  0.02309691  0.51348898     0.06100
C1910       C  0.80730640  0.00513849  0.52452740    -0.10000
C1911       C  0.77958805  0.00315364  0.51629025     0.03600
C1912       C  0.78057767  0.01910345  0.49707502    -0.08600
C1913       C  0.80923768  0.03700058  0.48601453     0.06100
C1914       C  0.83700916  0.03904185  0.49421704    -0.08000
H1915       H  0.80641673  0.49240024  0.53926432     0.11700
H1916       H  0.75906601  0.01743076  0.49067431     0.09200
H1917       H  0.85915413  0.05259816  0.48548365     0.09100
C1918       C  0.63904248  0.43166497  0.55058181     0.06100
C1919       C  0.66774023  0.44897183  0.53935957    -0.10000
C1920       C  0.69526889  0.45039002  0.54744951     0.03600
C1921       C  0.69418632  0.43451853  0.56671462    -0.08600
C1922       C  0.66564261  0.41728911  0.57801883     0.06100
C1923       C  0.63801059  0.41581930  0.56996500    -0.08000
H1924       H  0.66874863  0.46166545  0.52457169     0.11700
H1925       H  0.71558158  0.43580157  0.57299912     0.09200
H1926       H  0.61594925  0.40277478  0.57886794     0.09100
C1927       C  0.80537960  0.26551960  0.21764331     0.06100
C1928       C  0.80433024  0.24940103  0.23687885    -0.10000
C1929       C  0.83184817  0.25032367  0.24459230     0.03600
C1930       C  0.86024630  0.26720517  0.23310371    -0.08600
C1931       C  0.86131590  0.28335365  0.21400216     0.06100
C1932       C  0.83393516  0.28253330  0.20623918    -0.08000
H1933       H  0.78238765  0.23664162  0.24595199     0.11700
H1934       H  0.88157358  0.26811864  0.23917172     0.09200
H1935       H  0.83496530  0.29549046  0.19158568     0.09100
C1936       C  0.50221857  0.35664459  0.18076592     0.06100
C1937       C  0.97326035  0.33807589  0.19140824    -0.10000
C1938       C  0.94572285  0.33651721  0.18321981     0.03600
C1939       C  0.94707487  0.35342475  0.16443589    -0.08600
C1940       C  0.97595800  0.37186609  0.15376735     0.06100
C1941       C  0.50356010  0.37354190  0.16192820    -0.08000
H1942       H  0.97209169  0.32461824  0.20581835     0.11700
H1943       H  0.92568511  0.35204458  0.15805088     0.09200
H1944       H  0.52587645  0.38752855  0.15347028     0.09100
C1945       C  0.94101691  0.13020762  0.01561756     0.06100
C1946       C  0.95751260  0.15877963  0.02711559    -0.10000
C1947       C  0.95884113  0.18622897  0.01892984     0.03600
C1948       C  0.94365139  0.18516970  0.99933870    -0.08600
C1949       C  0.92722744  0.15677864  0.98777312     0.06100
C1950       C  0.92584224  0.12923204  0.99590961    -0.08000
H1951       H  0.96979984  0.15980130  0.04211599     0.11700
H1952       H  0.94496885  0.20652401  0.99295011     0.09200
H1953       H  0.91347533  0.10730350  0.98678660     0.09100
C1954       C  0.53406605  0.32804053  0.05079805     0.06100
C1955       C  0.51490476  0.29894155  0.04043750    -0.10000
C1956       C  0.51258828  0.27123265  0.04898929     0.03600
C1957       C  0.52935724  0.27256406  0.06783945    -0.08600
C1958       C  0.54843088  0.30152766  0.07823055     0.06100
C1959       C  0.55089531  0.32932102  0.06969713    -0.08000
H1960       H  0.50148107  0.29778903  0.02601075     0.11700
H1961       H  0.52735439  0.25105262  0.07451608     0.09200
H1962       H  0.56529595  0.35170628  0.07797234     0.09100
C1963       C  0.66877069  0.18764843  0.84633182     0.06100
C1964       C  0.63992493  0.16957994  0.85716858    -0.10000
C1965       C  0.61241534  0.16799182  0.84896757     0.03600
C1966       C  0.61362511  0.18442044  0.82995966    -0.08600
C1967       C  0.64238850  0.20241578  0.81904101     0.06100
C1968       C  0.67002264  0.20406005  0.82721167    -0.08000
H1969       H  0.63882782  0.15656247  0.87180823     0.11700
H1970       H  0.59222827  0.18309170  0.82363665     0.09200
H1971       H  0.69227822  0.21775407  0.81863299     0.09100
C1972       C  0.99946190  0.08495986  0.91202506     0.06100
C1973       C  0.52778659  0.10121667  0.90035347    -0.10000
C1974       C  0.52874504  0.11651506  0.88084162     0.03600
C1975       C  0.00139687  0.11548965  0.87286129    -0.08600
C1976       C  0.97296417  0.09915957  0.88444216     0.06100
C1977       C  0.97197105  0.08390089  0.90409606    -0.08000
H1978       H  0.54909340  0.10220230  0.90653577     0.11700
H1979       H  0.00235433  0.12775240  0.85786146     0.09200
H1980       H  0.95006952  0.07159114  0.91326126     0.09100
O1981       O  0.85667444  0.11683178  0.80918199    -0.77200
O1982       O  0.72114086  0.09168140  0.88412099    -0.78700
O1983       O  0.77553783  0.04519251  0.84772464    -0.75700
O1984       O  0.75629460  0.11027502  0.81037820    -0.74100
O1985       O  0.77759938  0.16412518  0.80990951    -0.75900
O1986       O  0.80530605  0.04964736  0.87788808    -0.76800
O1987       O  0.72523576  0.06726579  0.85334037    -0.78200
O1988       O  0.80276281  0.08434867  0.80885279    -0.78500
Eu1989     Eu  0.78065524  0.09685634  0.84064077     2.39200
O1990       O  0.77306406  0.13768417  0.85372384    -0.86000
O1991       O  0.82985808  0.10480223  0.85291658    -0.89600
C1992       C  0.83068049  0.09435660  0.80104222     1.05100
C1993       C  0.70973215  0.06963162  0.86961138     1.04900
C1994       C  0.78718367  0.03412857  0.86171987     1.04900
C1995       C  0.75931973  0.13609056  0.80237235     1.02700
H1996       H  0.76515421  0.07591053  0.88438123     0.32500
O1997       O  0.78128367  0.09628270  0.87905040    -0.98400
H1998       H  0.82137256  0.14593973  0.81207180     0.32500
O1999       O  0.82160216  0.14583569  0.82783685    -1.00900
O2000       O  0.78736681  0.17423289  0.92315338    -0.78100
O2001       O  0.92236840  0.20029713  0.84789793    -0.77700
O2002       O  0.79395704  0.08107369  0.92250564    -0.76100
O2003       O  0.76726201  0.19142021  0.84885189    -0.79400
O2004       O  0.85055529  0.21058108  0.81009548    -0.77300
O2005       O  0.87608819  0.09848354  0.88284592    -0.75900
O2006       O  0.88611267  0.18046695  0.92277876    -0.77500
O2007       O  0.86904755  0.24653798  0.88394179    -0.79400
O2008       O  0.86527078  0.12666734  0.92287429    -0.76100
O2009       O  0.83949101  0.24212469  0.85365307    -0.78800
O2010       O  0.76133923  0.10226292  0.92336484    -0.74500
O2011       O  0.90048804  0.12777060  0.85229905    -0.74600
O2012       O  0.88322669  0.18944964  0.80912683    -0.74200
O2013       O  0.74266353  0.16173182  0.87919720    -0.77700
O2014       O  0.84121410  0.20709447  0.92336939    -0.77100
O2015       O  0.91811355  0.22460589  0.87868415    -0.75500
Eu2016     Eu  0.77333695  0.13730992  0.89204346     2.39800
Eu2017     Eu  0.87070164  0.15367963  0.84023244     2.39600
Eu2018     Eu  0.83041696  0.10459539  0.89126532     2.38400
Eu2019     Eu  0.81385549  0.18673987  0.84096368     2.39900
Eu2020     Eu  0.86314452  0.19448946  0.89167824     2.39800
O2021       O  0.86282908  0.19460646  0.85330173    -0.89900
O2022       O  0.82246369  0.14536512  0.90426887    -0.88800
C2023       C  0.81332028  0.19689660  0.93123239     1.05300
C2024       C  0.93354198  0.22250834  0.86229991     1.04000
C2025       C  0.77149922  0.08438276  0.93088218     1.03400
C2026       C  0.74479889  0.17966389  0.86303682     1.05400
C2027       C  0.87312843  0.20749466  0.80176611     1.04300
C2028       C  0.89817030  0.10958349  0.86836392     1.03200
C2029       C  0.88282753  0.15452697  0.93084668     1.03200
C2030       C  0.85768380  0.25772904  0.86978571     1.05900
H2031       H  0.89173163  0.15811798  0.88390332     0.33200
O2032       O  0.87136264  0.15396618  0.87865958    -1.02000
H2033       H  0.80959963  0.20239940  0.88485733     0.35300
O2034       O  0.81378033  0.18632362  0.87937206    -1.04600
O2035       O  0.92328284  0.45019115  0.97732469    -0.77200
O2036       O  0.53611778  0.42597950  0.05007029    -0.78700
O2037       O  0.51696259  0.44437323  0.97659217    -0.75700
O2038       O  0.93504580  0.37837635  0.01601888    -0.74100
O2039       O  0.91067501  0.38258215  0.04677957    -0.75900
O2040       O  0.55001648  0.49817518  0.97628235    -0.76800
O2041       O  0.00635152  0.40124529  0.01977217    -0.78200
O2042       O  0.94435955  0.41748144  0.97667718    -0.78500
Eu2043     Eu  0.98033875  0.43068198  0.00770827     2.39200
O2044       O  0.98105572  0.43058187  0.04608732    -0.86000
O2045       O  0.98821583  0.47961997  0.99511800    -0.89600
C2046       C  0.92623356  0.42739807  0.96918701     1.05100
C2047       C  0.52479997  0.40374367  0.03567090     1.04900
C2048       C  0.53977706  0.47020732  0.96854952     1.04900
C2049       C  0.91301864  0.36699845  0.03055332     1.02700
H2050       H  0.54562666  0.46757314  0.01469578     0.32500
O2051       O  0.52938323  0.47153012  0.02015159    -0.98400
H2052       H  0.91894761  0.42225217  0.01545038     0.32500
O2053       O  0.93932666  0.43857324  0.02064732    -1.00900
O2054       O  0.55413176  0.00929446  0.08909557    -0.78100
O2055       O  0.94073348  0.03303073  0.01658829    -0.77700
O2056       O  0.58980610  0.02765817  0.01551877    -0.76100
O2057       O  0.95422761  0.41570618  0.08998603    -0.79400
O2058       O  0.88807760  0.43257718  0.05134273    -0.77300
O2059       O  0.52308537  0.04319480  0.97650009    -0.75900
O2060       O  0.54258888  0.08040484  0.05073635    -0.77500
O2061       O  0.95964895  0.01461177  0.08969185    -0.79400
O2062       O  0.56699996  0.07599750  0.02007506    -0.76100
O2063       O  0.92702171  0.46073386  0.09018402    -0.78800
O2064       O  0.58576593  0.49844614  0.04591314    -0.74500
O2065       O  0.96922610  0.02205490  0.97641381    -0.74600
O2066       O  0.89233405  0.46200146  0.02102670    -0.74200
O2067       O  0.50812399  0.43699476  0.09019035    -0.77700
O2068       O  0.53259981  0.04162790  0.08979524    -0.77100
O2069       O  0.97020645  0.05776528  0.04698602    -0.75500
Eu2070     Eu  0.53024495  0.47194092  0.05850226     2.39800
Eu2071     Eu  0.94733413  0.48747212  0.00810372     2.39600
Eu2072     Eu  0.53732778  0.02065850  0.00762884     2.38400
Eu2073     Eu  0.94006146  0.43825293  0.05897865     2.39900
Eu2074     Eu  0.49661291  0.02842336  0.05882592     2.39800
O2075       O  0.94773991  0.48721726  0.04644124    -0.89900
O2076       O  0.53774467  0.02070767  0.04597706    -0.88800
C2077       C  0.55084138  0.03184620  0.09725343     1.05300
C2078       C  0.95178126  0.05521947  0.03102897     1.04000
C2079       C  0.60127843  0.01672991  0.02979351     1.03400
C2080       C  0.98020504  0.41921877  0.09807295     1.05400
C2081       C  0.87684175  0.44386581  0.03716279     1.04300
C2082       C  0.49707180  0.03973427  0.96845986     1.03200
C2083       C  0.56472067  0.09161965  0.03627052     1.03200
C2084       C  0.93701513  0.48872576  0.09779501     1.05900
H2085       H  0.50057234  0.04902121  0.01514985     0.33200
O2086       O  0.49663501  0.02874961  0.02046437    -1.02000
H2087       H  0.98930357  0.47968117  0.08719199     0.35300
O2088       O  0.98912654  0.47957286  0.07142775    -1.04600
O2089       O  0.88659688  0.17548657  0.42200211    -0.77200
O2090       O  0.77392333  0.19983062  0.34921267    -0.78700
O2091       O  0.87616670  0.24640403  0.38399229    -0.75700
O2092       O  0.79253906  0.18052824  0.42293543    -0.74100
O2093       O  0.76017245  0.12658958  0.42348425    -0.75900
O2094       O  0.90043193  0.24188266  0.35326836    -0.76800
O2095       O  0.80319076  0.22453238  0.37968211    -0.78200
O2096       O  0.86535110  0.20807174  0.42272618    -0.78500
Eu2097     Eu  0.82931798  0.19489597  0.39178969     2.39200
O2098       O  0.78045023  0.15369815  0.37943791    -0.86000
O2099       O  0.87020403  0.18687225  0.37885700    -0.89600
C2100       C  0.88351307  0.19816102  0.43014223     1.05100
C2101       C  0.78489497  0.22202553  0.36362768     1.04900
C2102       C  0.89841529  0.25741877  0.36960514     1.04900
C2103       C  0.77021362  0.15453183  0.43118623     1.02700
H2104       H  0.83378776  0.21571334  0.34801924     0.32500
O2105       O  0.82973211  0.19542513  0.35338378    -0.98400
H2106       H  0.82191176  0.14590032  0.42012376     0.32500
O2107       O  0.82169869  0.14593790  0.40435690    -1.00900
O2108       O  0.75711482  0.11762396  0.31000426    -0.78100
O2109       O  0.86775804  0.09174707  0.38364288    -0.77700
O2110       O  0.85593077  0.20903831  0.30916592    -0.76100
O2111       O  0.72098792  0.09947434  0.38437011    -0.79400
O2112       O  0.78681916  0.08100029  0.42234035    -0.77300
O2113       O  0.92229444  0.19310749  0.34828600    -0.75900
O2114       O  0.84937484  0.11074446  0.30921374    -0.77500
O2115       O  0.76794698  0.04492794  0.34872991    -0.79400
O2116       O  0.88213585  0.16457569  0.30878373    -0.76100
O2117       O  0.74341917  0.04904164  0.37943763    -0.78800
O2118       O  0.80211071  0.18812691  0.30918951    -0.74500
O2119       O  0.91803863  0.16403896  0.37880774    -0.74600
O2120       O  0.84072818  0.10255364  0.42272776    -0.74200
O2121       O  0.72546776  0.12898014  0.35405092    -0.77700
O2122       O  0.77829257  0.08499889  0.30932436    -0.77100
O2123       O  0.83828487  0.06710721  0.35323583    -0.75500
Eu2124     Eu  0.78038199  0.15416405  0.34112064     2.39800
Eu2125     Eu  0.86270308  0.13819894  0.39143314     2.39600
Eu2126     Eu  0.87016885  0.18686873  0.34053122     2.38400
Eu2127     Eu  0.77271755  0.10459383  0.39183895     2.39900
Eu2128     Eu  0.81321104  0.09716854  0.34065495     2.39800
O2129       O  0.81365006  0.09703030  0.37895906    -0.89900
O2130       O  0.82105412  0.14605528  0.32825669    -0.88800
C2131       C  0.76051315  0.09520257  0.30170713     1.05300
C2132       C  0.85627495  0.06937710  0.36937612     1.04000
C2133       C  0.82989936  0.20547837  0.30108302     1.03400
C2134       C  0.70993173  0.11094943  0.37020819     1.05400
C2135       C  0.81276944  0.08433030  0.43037597     1.04300
C2136       C  0.93357311  0.18207947  0.36261495     1.03200
C2137       C  0.87178759  0.13666546  0.30094449     1.03200
C2138       C  0.74594146  0.03349943  0.36325871     1.05900
H2139       H  0.87842735  0.13356431  0.34755571     0.33200
O2140       O  0.86233545  0.13774333  0.35303874    -1.02000
H2141       H  0.75172080  0.08880933  0.34817860     0.35300
O2142       O  0.77207544  0.10504641  0.35347759    -1.04600
O2143       O  0.70842266  0.41158814  0.71726349    -0.77200
O2144       O  0.68293380  0.27571281  0.64270591    -0.78700
O2145       O  0.75505907  0.35838907  0.68109147    -0.75700
O2146       O  0.68900440  0.37483519  0.64236612    -0.74100
O2147       O  0.63512174  0.35348553  0.64207746    -0.75900
O2148       O  0.75095879  0.32939398  0.71161392    -0.76800
O2149       O  0.71562716  0.32957867  0.64224474    -0.78200
O2150       O  0.73330194  0.40693466  0.68694066    -0.78500
Eu2151     Eu  0.70289071  0.35203333  0.67353881     2.39200
O2152       O  0.65384637  0.31094647  0.66108360    -0.86000
O2153       O  0.70294926  0.35229327  0.71185061    -0.89600
C2154       C  0.73103586  0.42251603  0.70318512     1.05100
C2155       C  0.70562197  0.30162093  0.63459538     1.04900
C2156       C  0.76641578  0.34736755  0.69535439     1.04900
C2157       C  0.66301198  0.37127896  0.63420450     1.02700
H2158       H  0.71108942  0.29872785  0.68074930     0.32500
O2159       O  0.69495379  0.30289198  0.68612915    -0.98400
H2160       H  0.66638122  0.38058738  0.68083885     0.32500
O2161       O  0.66226964  0.36029577  0.68623513    -1.00900
O2162       O  0.60037417  0.20987834  0.68202611    -0.78100
O2163       O  0.62501145  0.34633457  0.75557345    -0.77700
O2164       O  0.70025363  0.25693585  0.71710343    -0.76100
O2165       O  0.58951094  0.28198240  0.64297638    -0.79400
O2166       O  0.60680186  0.36485787  0.68158482    -0.77300
O2167       O  0.71930798  0.34117711  0.75506192    -0.75900
O2168       O  0.61984642  0.24672839  0.75559700    -0.77500
O2169       O  0.55395619  0.26519679  0.71781428    -0.79400
O2170       O  0.67378900  0.26852960  0.75598530    -0.76100
O2171       O  0.55827659  0.29440591  0.68735587    -0.78800
O2172       O  0.67079204  0.23194502  0.68675504    -0.74500
O2173       O  0.69748766  0.37324804  0.75583335    -0.74600
O2174       O  0.63587851  0.38958499  0.71212523    -0.74200
O2175       O  0.61074270  0.24939273  0.64241406    -0.77700
O2176       O  0.57589531  0.21433815  0.71265202    -0.77100
O2177       O  0.59293795  0.29239990  0.75653070    -0.75500
Eu2178     Eu  0.64592538  0.26204780  0.67373058     2.39800
Eu2179     Eu  0.66180744  0.36001586  0.72463634     2.39600
Eu2180     Eu  0.69561146  0.30373114  0.72449307     2.38400
Eu2181     Eu  0.61302228  0.31898402  0.67385660     2.39900
Eu2182     Eu  0.60553464  0.26994300  0.72496402     2.39800
O2183       O  0.61306782  0.31877596  0.71219923    -0.89900
O2184       O  0.64653856  0.26243845  0.71205781    -0.88800
C2185       C  0.57829476  0.19862761  0.69652984     1.05300
C2186       C  0.60276982  0.32047606  0.76397935     1.04000
C2187       C  0.68869704  0.23434982  0.70299682     1.03400
C2188       C  0.59284342  0.25946439  0.63478006     1.05400
C2189       C  0.61784648  0.38715193  0.69592732     1.04300
C2190       C  0.71583857  0.36358431  0.76329042     1.03200
C2191       C  0.64586721  0.25027879  0.76367255     1.03200
C2192       C  0.54289628  0.27674575  0.70372317     1.05900
H2193       H  0.65465772  0.31138938  0.75317453     0.33200
O2194       O  0.65447782  0.31131611  0.73740960    -1.02000
H2195       H  0.58448561  0.25381064  0.68129483     0.35300
O2196       O  0.60486256  0.27006211  0.68653614    -1.04600
O2197       O  0.69015162  0.28412090  0.14277949    -0.77200
O2198       O  0.55358576  0.25917201  0.21650067    -0.78700
O2199       O  0.60807878  0.21241676  0.18116232    -0.75700
O2200       O  0.59122602  0.27869144  0.14237797    -0.74100
O2201       O  0.61264800  0.33259254  0.14215949    -0.75900
O2202       O  0.63720752  0.21679699  0.21167662    -0.76800
O2203       O  0.55792636  0.23480242  0.18578073    -0.78200
O2204       O  0.63628958  0.25129638  0.14230558    -0.78500
Eu2205     Eu  0.61363155  0.26430130  0.17348107     2.39200
O2206       O  0.60593507  0.30527260  0.18630557    -0.86000
O2207       O  0.66257907  0.27198531  0.18616178    -0.89600
C2208       C  0.66429946  0.26143492  0.13464419     1.05100
C2209       C  0.54226636  0.23713351  0.20197757     1.04900
C2210       C  0.61923416  0.20123855  0.19548024     1.04900
C2211       C  0.59484851  0.30471403  0.13425790     1.02700
H2212       H  0.59744864  0.24330417  0.21714923     0.32500
O2213       O  0.61370793  0.26365777  0.21186895    -0.98400
H2214       H  0.65522882  0.31366343  0.14534495     0.32500
O2215       O  0.65498791  0.31341477  0.16111222    -1.00900
O2216       O  0.61978893  0.34083928  0.25615828    -0.78100
O2217       O  0.75555713  0.36717354  0.18159921    -0.77700
O2218       O  0.62585370  0.24860336  0.25550657    -0.76100
O2219       O  0.60058187  0.35943973  0.18181443    -0.79400
O2220       O  0.68532283  0.37897144  0.14389570    -0.77300
O2221       O  0.70828031  0.26540553  0.21652653    -0.75900
O2222       O  0.71776860  0.34765631  0.25632701    -0.77500
O2223       O  0.70245031  0.41420282  0.21699126    -0.79400
O2224       O  0.69640803  0.29379015  0.25655851    -0.76100
O2225       O  0.67322379  0.40997120  0.18656718    -0.78800
O2226       O  0.59316365  0.26970401  0.25606328    -0.74500
O2227       O  0.73323030  0.29480530  0.18615555    -0.74600
O2228       O  0.71766808  0.35744216  0.14323622    -0.74200
O2229       O  0.57591635  0.33001604  0.21224096    -0.77700
O2230       O  0.67363043  0.37377544  0.25648314    -0.77100
O2231       O  0.75102837  0.39176421  0.21211771    -0.75500
Eu2232     Eu  0.60578821  0.30473249  0.22465772     2.39800
Eu2233     Eu  0.70377887  0.32086147  0.17383480     2.39600
Eu2234     Eu  0.66264597  0.27188806  0.22449582     2.38400
Eu2235     Eu  0.64720240  0.35448997  0.17398121     2.39900
Eu2236     Eu  0.69580926  0.36185999  0.22479795     2.39800
O2237       O  0.69587201  0.36191274  0.18652514    -0.89900
O2238       O  0.65474076  0.31278380  0.23707926    -0.88800
C2239       C  0.64574218  0.36327939  0.26437561     1.05300
C2240       C  0.76663744  0.38949830  0.19590640     1.04000
C2241       C  0.60331156  0.25188280  0.26372047     1.03400
C2242       C  0.57822997  0.34803039  0.19612084     1.05400
C2243       C  0.70811542  0.37592602  0.13591633     1.04300
C2244       C  0.73058956  0.27648197  0.20219821     1.03200
C2245       C  0.71393357  0.32160988  0.26457892     1.03200
C2246       C  0.69148314  0.42557331  0.20267253     1.05900
H2247       H  0.72434525  0.32521804  0.21765995     0.33200
O2248       O  0.70408794  0.32118456  0.21221884    -1.02000
H2249       H  0.64248335  0.37010951  0.21781724     0.35300
O2250       O  0.64656467  0.35395146  0.21235445    -1.04600
O2251       O  0.95304740  0.00728418  0.58873032    -0.77200
O2252       O  0.58904819  0.03222248  0.51464061    -0.78700
O2253       O  0.55268412  0.01385549  0.58833828    -0.75700
O2254       O  0.53588842  0.07995603  0.54948769    -0.74100
O2255       O  0.50671192  0.07562870  0.51901473    -0.75900
O2256       O  0.53182023  0.46005379  0.58848904    -0.76800
O2257       O  0.58449980  0.05703742  0.54503922    -0.78200
O2258       O  0.50690734  0.04004247  0.58913877    -0.78500
Eu2259     Eu  0.52926136  0.02765633  0.55753583     2.39200
O2260       O  0.52944920  0.02765839  0.51918980    -0.86000
O2261       O  0.98828690  0.47862497  0.57007706    -0.89600
C2262       C  0.97895883  0.02980504  0.59693171     1.05100
C2263       C  0.60019896  0.05446340  0.52902319     1.04900
C2264       C  0.54970117  0.48798442  0.59625905     1.04900
C2265       C  0.52487796  0.09124928  0.53513561     1.02700
H2266       H  0.55766512  0.99085466  0.55008614     0.32500
O2267       O  0.53736466  0.48690575  0.54480586    -0.98400
H2268       H  0.97611117  0.03601357  0.55043163     0.32500
O2269       O  0.98014437  0.01979271  0.54503461    -1.00900
O2270       O  0.52320295  0.44946554  0.47566366    -0.78100
O2271       O  0.88708246  0.42510072  0.54948289    -0.77700
O2272       O  0.54158466  0.43077330  0.54905174    -0.76100
O2273       O  0.51794911  0.04363527  0.47610690    -0.79400
O2274       O  0.93439728  0.02566520  0.51462093    -0.77300
O2275       O  0.95974843  0.41463035  0.58837853    -0.75900
O2276       O  0.94102420  0.37814094  0.51415275    -0.77500
O2277       O  0.92359248  0.44430032  0.47578801    -0.79400
O2278       O  0.97037705  0.38260489  0.54456393    -0.76100
O2279       O  0.94537857  0.49823294  0.47533934    -0.78800
O2280       O  0.56637971  0.45999175  0.51859358    -0.74500
O2281       O  0.92694521  0.43561907  0.58878222    -0.74600
O2282       O  0.90964316  0.49629912  0.54504454    -0.74200
O2283       O  0.55018352  0.02198546  0.47533501    -0.77700
O2284       O  0.96925183  0.41722014  0.47501680    -0.77100
O2285       O  0.89129821  0.40043588  0.51888524    -0.75500
Eu2286     Eu  0.53705213  0.48636498  0.50649577     2.39800
Eu2287     Eu  0.93935695  0.47078232  0.55749552     2.39600
Eu2288     Eu  0.99624414  0.43774107  0.55726396     2.38400
Eu2289     Eu  0.98067625  0.02014763  0.50670067     2.39900
Eu2290     Eu  0.94683382  0.43006347  0.50640433     2.39800
O2291       O  0.93928835  0.47113633  0.51915731    -0.89900
O2292       O  0.99580972  0.43754838  0.51892430    -0.88800
C2293       C  0.49726444  0.42708832  0.46745110     1.05300
C2294       C  0.87574609  0.40283225  0.53511430     1.04000
C2295       C  0.56381119  0.44171359  0.53465550     1.03400
C2296       C  0.54038845  0.04022705  0.46789623     1.05400
C2297       C  0.91205823  0.01439441  0.52893994     1.04300
C2298       C  0.93712062  0.41784930  0.59649020     1.03200
C2299       C  0.95225126  0.36700810  0.52844496     1.03200
C2300       C  0.92712173  0.47029829  0.46771637     1.05900
H2301       H  0.93106977  0.40941520  0.55009350     0.33200
O2302       O  0.94732066  0.42973472  0.54475724    -1.02000
H2303       H  0.98821972  0.47905382  0.47809153     0.35300
O2304       O  0.98821944  0.47895339  0.49385733    -1.04600
C2305       C  0.49889787  0.05663337  0.94890208    -0.10300
C2306       C  0.99895995  0.06968608  0.93220328    -0.11900
C2307       C  0.94544601  0.09984244  0.87677359    -0.10300
C2308       C  0.92331102  0.10286730  0.87151710    -0.11900
C2309       C  0.64329589  0.21889667  0.79936337    -0.10300
C2310       C  0.64385956  0.23279344  0.78296909    -0.11900
C2311       C  0.71913766  0.18549651  0.85955365    -0.10300
C2312       C  0.69660438  0.18776419  0.85418644    -0.11900
C2313       C  0.58285280  0.14936873  0.86000246    -0.10300
C2314       C  0.55807852  0.13409306  0.86935271    -0.11900
C2315       C  0.56468460  0.30237477  0.09799962    -0.10300
C2316       C  0.57805448  0.30279117  0.11462408    -0.11900
C2317       C  0.53170323  0.37864900  0.03849355    -0.10300
C2318       C  0.53428203  0.35605160  0.04316939    -0.11900
C2319       C  0.94172881  0.10257167  0.02316998    -0.10300
C2320       C  0.94475589  0.08026189  0.02804045    -0.11900
C2321       C  0.91234366  0.15635278  0.96738660    -0.10300
C2322       C  0.89962522  0.15640148  0.95052199    -0.11900
C2323       C  0.99283159  0.24124930  0.03863758    -0.10300
C2324       C  0.97695144  0.21592967  0.03001399    -0.11900
C2325       C  0.55284020  0.35434220  0.19298336    -0.10300
C2326       C  0.53012285  0.35663436  0.18825324    -0.11900
C2327       C  0.97706828  0.38846537  0.13415367    -0.10300
C2328       C  0.97805460  0.40223890  0.11762412    -0.11900
C2329       C  0.83144607  0.23472893  0.26457748    -0.10300
C2330       C  0.83159687  0.22187921  0.28131454    -0.11900
C2331       C  0.75559112  0.26953736  0.20540603    -0.10300
C2332       C  0.77778839  0.26641529  0.21035055    -0.11900
C2333       C  0.89085984  0.30162560  0.20283369    -0.10300
C2334       C  0.91593632  0.31734539  0.19390773    -0.11900
C2335       C  0.66507344  0.40155358  0.59801967    -0.10300
C2336       C  0.66492662  0.38827246  0.61464369    -0.11900
C2337       C  0.61124605  0.43199136  0.54296222    -0.10300
C2338       C  0.58888426  0.43480180  0.53786888    -0.11900
C2339       C  0.80996131  0.05298152  0.46613177    -0.10300
C2340       C  0.81062080  0.06672672  0.44963789    -0.11900
C2341       C  0.86408041  0.02327366  0.52102323    -0.10300
C2342       C  0.88677447  0.02092400  0.52580133    -0.11900
C2343       C  0.72489571  0.46876014  0.53632877    -0.10300
C2344       C  0.74993889  0.48436140  0.52729546    -0.11900
C2345       C  0.60904698  0.43504157  0.68730269    -0.10300
C2346       C  0.61142036  0.41247866  0.69248676    -0.11900
C2347       C  0.56751405  0.49011532  0.61540818    -0.10300
C2348       C  0.58115230  0.49032676  0.63185534    -0.11900
C2349       C  0.69470354  0.20883701  0.70661165    -0.10300
C2350       C  0.69685991  0.18621619  0.71188460    -0.11900
C2351       C  0.74118444  0.13362574  0.78331447    -0.10300
C2352       C  0.72689294  0.13256220  0.76699828    -0.11900
C2353       C  0.64376350  0.04786054  0.69587037    -0.10300
C2354       C  0.65860839  0.07245378  0.70555342    -0.11900
C2355       C  0.86485588  0.02135253  0.37760704    -0.10300
C2356       C  0.86249198  0.04395046  0.37264037    -0.11900
C2357       C  0.90959341  0.46827278  0.44850437    -0.10300
C2358       C  0.89575517  0.46781962  0.43214435    -0.11900
C2359       C  0.77441410  0.26906509  0.35556969    -0.10300
C2360       C  0.77776722  0.24697876  0.36051668    -0.11900
C2361       C  0.74303740  0.32307126  0.30119860    -0.10300
C2362       C  0.73024633  0.32331393  0.28443149    -0.11900
C2363       C  0.82679785  0.40755323  0.37142269    -0.10300
C2364       C  0.81104827  0.38248038  0.36251933    -0.11900
C2365       C  0.92169521  0.49094056  0.11704083    -0.10300
C2366       C  0.90836814  0.49140874  0.13342320    -0.11900
C2367       C  0.82341569  0.43748921  0.18765979    -0.10300
C2368       C  0.79838133  0.41488586  0.19261014    -0.11900
C2369       C  0.88660220  0.13472909  0.28130245    -0.10300
C2370       C  0.89985932  0.13501133  0.26466017    -0.11900
C2371       C  0.98495907  0.18981970  0.21021324    -0.10300
C2372       C  0.51025147  0.21206741  0.20516456    -0.11900
C2373       C  0.90835352  0.07638820  0.20293875    -0.10300
C2374       C  0.89904857  0.05136391  0.19399949    -0.11900
C2375       C  0.96528017  0.18848397  0.35917020    -0.10300
C2376       C  0.99010307  0.19065282  0.35398319    -0.11900
C2377       C  0.58808357  0.23442439  0.28304212    -0.10300
C2378       C  0.57459389  0.22065480  0.29941220    -0.11900
C2379       C  0.55560980  0.05784420  0.44869020    -0.10300
C2380       C  0.56859933  0.07164078  0.43224471    -0.11900
C2381       C  0.67828973  0.10468456  0.37352571    -0.10300
C2382       C  0.65326584  0.10237531  0.37819297    -0.11900
C2383       C  0.57511506  0.13703273  0.36979890    -0.10300
C2384       C  0.56527942  0.15200633  0.36046363    -0.11900
C2385       C  0.84505822  0.43733525  0.04048211    -0.10300
C2386       C  0.82010069  0.43515799  0.04528153    -0.11900
C2387       C  0.72407855  0.39416303  0.11708424    -0.10300
C2388       C  0.73759819  0.40791191  0.10075581    -0.11900
C2389       C  0.74265709  0.05378642  0.96673768    -0.10300
C2390       C  0.75632588  0.06699472  0.95025668    -0.11900
C2391       C  0.65824503  0.02594637  0.02134583    -0.10300
C2392       C  0.63322475  0.02356654  0.02637728    -0.11900
C2393       C  0.74401883  0.47291610  0.03830886    -0.10300
C2394       C  0.73405933  0.48798718  0.02924072    -0.11900
C2395       C  0.73520693  0.29980433  0.59914692    -0.10300
C2396       C  0.72130201  0.29961176  0.61543107    -0.11900
C2397       C  0.81916869  0.35473348  0.54395954    -0.10300
C2398       C  0.84398048  0.37741794  0.53861680    -0.11900
C2399       C  0.65759679  0.10186455  0.52162780    -0.10300
C2400       C  0.63223098  0.07940700  0.52612419    -0.11900
C2401       C  0.75537023  0.15648079  0.45076468    -0.10300
C2402       C  0.74235461  0.15648808  0.46742627    -0.11900
C2403       C  0.74346146  0.24069596  0.53769156    -0.10300
C2404       C  0.73378191  0.21558818  0.52877820    -0.11900
C2405       C  0.88828672  0.22536540  0.78258669    -0.10300
C2406       C  0.90166384  0.23949018  0.76630234    -0.11900
C2407       C  0.51153677  0.27114062  0.70747773    -0.10300
C2408       C  0.98691396  0.26947107  0.71258087    -0.11900
C2409       C  0.82315479  0.35646841  0.68648676    -0.10300
C2410       C  0.79814545  0.35383758  0.69175462    -0.11900
C2411       C  0.90822167  0.38687732  0.63217178    -0.10300
C2412       C  0.92179265  0.40040905  0.61577053    -0.11900
C2413       C  0.90145782  0.32216252  0.69501360    -0.10300
C2414       C  0.91130701  0.30739279  0.70460134    -0.11900
C2415       C  0.67781093  0.04456048  0.87289121    -0.10300
C2416       C  0.65266613  0.02221835  0.87800494    -0.11900
C2417       C  0.56867153  0.46756299  0.93298202    -0.10300
C2418       C  0.55523448  0.46795540  0.94935293    -0.11900
C2419       C  0.99012834  0.27069603  0.85404455    -0.10300
C2420       C  0.96518755  0.24798008  0.85895761    -0.11900
C2421       C  0.57485429  0.32417565  0.79976680    -0.10300
C2422       C  0.58777486  0.32297966  0.78335361    -0.11900
C2423       C  0.56567503  0.38451324  0.86055093    -0.10300
C2424       C  0.57517998  0.40918405  0.87006477    -0.11900
C2425       C  0.74341517  0.08022879  0.28225571    -0.10300
C2426       C  0.73036916  0.06692692  0.26566879    -0.11900
C2427       C  0.69841036  0.45755028  0.20594409    -0.10300
C2428       C  0.70118393  0.48275014  0.21086975    -0.11900
C2429       C  0.56845159  0.04722229  0.11646240    -0.10300
C2430       C  0.58181282  0.06046270  0.13298396    -0.11900
C2431       C  0.61014291  0.14427191  0.18765210    -0.10300
C2432       C  0.61262065  0.16940271  0.19229912    -0.11900
C2433       C  0.64806948  0.06848063  0.19511233    -0.10300
C2434       C  0.66354666  0.05884905  0.20399402    -0.11900
C2435       C  0.72112605  0.00147051  0.36010028    -0.10300
C2436       C  0.69896579  0.47620098  0.35503115    -0.11900
C2437       C  0.64430874  0.39128868  0.30064307    -0.10300
C2438       C  0.64389648  0.37799387  0.28402740    -0.11900
C2439       C  0.00027635  0.39896634  0.43167950    -0.10300
C2440       C  0.99951665  0.41199181  0.44812129    -0.11900
C2441       C  0.94680096  0.31397603  0.37765431    -0.10300
C2442       C  0.92402076  0.28900678  0.37288335    -0.11900
C2443       C  0.56040148  0.39059300  0.37085450    -0.10300
C2444       C  0.58543832  0.40013641  0.36190131    -0.11900
C2445       C  0.58990743  0.12355964  0.03934685    -0.10300
C2446       C  0.61248317  0.14874299  0.04411919    -0.11900
C2447       C  0.66654068  0.24629474  0.11525992    -0.10300
C2448       C  0.66692651  0.23318190  0.09871555    -0.11900
C2449       C  0.81122269  0.22569707  0.96707224    -0.10300
C2450       C  0.81135907  0.21221835  0.95063420    -0.11900
C2451       C  0.86535112  0.31009061  0.02201886    -0.10300
C2452       C  0.88784056  0.33508735  0.02726602    -0.11900
C2453       C  0.72636975  0.22479344  0.03724993    -0.10300
C2454       C  0.75137696  0.23429641  0.02817835    -0.11900
C2455       C  0.56261977  0.23139854  0.59868156    -0.10300
C2456       C  0.57560605  0.24436459  0.61537707    -0.11900
C2457       C  0.53152087  0.12311512  0.53840527    -0.10300
C2458       C  0.53404130  0.14821029  0.54330095    -0.11900
C2459       C  0.94388424  0.31046298  0.52036169    -0.10300
C2460       C  0.94578119  0.33525989  0.52521910    -0.11900
C2461       C  0.91548227  0.22704785  0.46549756    -0.10300
C2462       C  0.90145442  0.21362128  0.44921032    -0.11900
C2463       C  0.98504674  0.23708605  0.52609041    -0.10300
C2464       C  0.50009271  0.22710891  0.53518277    -0.11900
C2465       C  0.86386539  0.28938187  0.87340639    -0.10300
C2466       C  0.86593052  0.31414992  0.87871071    -0.11900
C2467       C  0.89404787  0.39786947  0.93386329    -0.10300
C2468       C  0.90804639  0.41160612  0.95015168    -0.11900
C2469       C  0.74731719  0.39224038  0.79894608    -0.10300
C2470       C  0.73348867  0.37895745  0.78253197    -0.11900
C2471       C  0.77835879  0.47749779  0.85297809    -0.10300
C2472       C  0.78091134  0.00250149  0.85809974    -0.11900
C2473       C  0.81460386  0.40061786  0.86089050    -0.10300
C2474       C  0.82934377  0.39082297  0.87062612    -0.11900
C2475       C  0.53103162  0.14127004  0.68849422    -0.10300
C2476       C  0.55325884  0.16661198  0.69343521    -0.11900
C2477       C  0.97670804  0.05748903  0.63328127    -0.10300
C2478       C  0.97687993  0.04469778  0.61651080    -0.11900
C2479       C  0.77934685  0.47888769  0.71204738    -0.10300
C2480       C  0.75671227  0.45401733  0.70683407    -0.11900
C2481       C  0.83316213  0.06562987  0.76526614    -0.10300
C2482       C  0.83269760  0.07914971  0.78159253    -0.11900
C2483       C  0.89340938  0.05357046  0.70578831    -0.10300
C2484       C  0.91824340  0.06281127  0.69654607    -0.11900
C2485       C  0.80733645  0.50685293  0.71952580     0.06100
C2486       C  0.83619858  0.51694338  0.70885657    -0.10000
C2487       C  0.86380578  0.54321685  0.71667131     0.03600
C2488       C  0.86265658  0.55943267  0.73514383    -0.08600
C2489       C  0.83390413  0.54932707  0.74592193     0.06100
C2490       C  0.80618173  0.52303058  0.73810902    -0.08000
H2491       H  0.83722139  0.50425072  0.69463848     0.11700
H2492       H  0.88411728  0.57972401  0.74120050     0.09200
H2493       H  0.78393704  0.51498065  0.74658652     0.09100
C2494       C  0.50337797  0.61286112  0.68110825     0.06100
C2495       C  0.97508262  0.60072443  0.69289139    -0.10000
C2496       C  0.94755839  0.57440880  0.68500763     0.03600
C2497       C  0.94824818  0.56009858  0.66540973    -0.08600
C2498       C  0.97643402  0.57215980  0.65356732     0.06100
C2499       C  0.50405725  0.59856368  0.66140097    -0.08000
H2500       H  0.97433672  0.61207232  0.70791972     0.11700
H2501       H  0.92682380  0.53984317  0.65927142     0.09200
H2502       H  0.52582406  0.60817330  0.65208001     0.09100
C2503       C  0.77815863  0.94942645  0.84560158     0.06100
C2504       C  0.79551880  0.93832076  0.85700656    -0.10000
C2505       C  0.79676569  0.91199417  0.84927336     0.03600
C2506       C  0.78074731  0.89676923  0.83014275    -0.08600
C2507       C  0.76346326  0.90786262  0.81868538     0.06100
C2508       C  0.76211373  0.93419171  0.82640233    -0.08000
H2509       H  0.80823280  0.95028042  0.87172940     0.11700
H2510       H  0.78181088  0.87641506  0.82415690     0.09200
H2511       H  0.74893566  0.94295887  0.81740688     0.09100
C2512       C  0.86542149  0.84180898  0.88636187     0.06100
C2513       C  0.88022502  0.85629635  0.90609083    -0.10000
C2514       C  0.87832337  0.88229746  0.91394530     0.03600
C2515       C  0.86151819  0.89363720  0.90215915    -0.08600
C2516       C  0.84674554  0.87918972  0.88251944     0.06100
C2517       C  0.84868983  0.85332042  0.87459953    -0.05000
H2518       H  0.89304750  0.84733436  0.91530424     0.11700
H2519       H  0.86000488  0.91370927  0.90822592     0.09200
H2520       H  0.83696660  0.84200428  0.85945636     0.09100
C2521       C  0.94486623  0.78314082  0.51268341     0.06100
C2522       C  0.96352086  0.77303810  0.52353402    -0.10000
C2523       C  0.96616981  0.74778267  0.51512835     0.03600
C2524       C  0.95027168  0.73266439  0.49596677    -0.08600
C2525       C  0.93168425  0.74272695  0.48514815     0.06100
C2526       C  0.92893215  0.76795727  0.49346470    -0.08000
H2527       H  0.97616043  0.78496224  0.53828455     0.11700
H2528       H  0.95236167  0.71311214  0.48948942     0.09200
H2529       H  0.91477046  0.77595920  0.48489401     0.09100
C2530       C  0.54781588  0.71679049  0.57839779     0.06100
C2531       C  0.54906837  0.69045774  0.57057242    -0.10000
C2532       C  0.53438669  0.67637469  0.55074600     0.03600
C2533       C  0.51842440  0.68866096  0.53886096    -0.08600
C2534       C  0.51727454  0.71498975  0.54677658     0.06100
C2535       C  0.53200365  0.72904611  0.56647683    -0.08000
H2536       H  0.56110947  0.68079584  0.57995905     0.11700
H2537       H  0.00657294  0.67752464  0.52371402     0.09200
H2538       H  0.53092681  0.74932832  0.57261598     0.09100
C2539       C  0.83739091  0.78226762  0.01424875     0.06100
C2540       C  0.83840086  0.76723720  0.99498170    -0.10000
C2541       C  0.81065241  0.74125637  0.98685888     0.03600
C2542       C  0.78202564  0.73037494  0.99795901    -0.08600
C2543       C  0.78098966  0.74538196  0.01711142     0.06100
C2544       C  0.80861915  0.77131522  0.02527049    -0.08000
H2545       H  0.86054970  0.77589388  0.98625392     0.11700
H2546       H  0.76055699  0.71035049  0.99164964     0.09200
H2547       H  0.80766247  0.78313456  0.03999638     0.09100
C2548       C  0.64046645  0.67680056  0.05153481     0.06100
C2549       C  0.66912093  0.68777447  0.04034172    -0.10000
C2550       C  0.69681792  0.71376638  0.04838944     0.03600
C2551       C  0.69593918  0.72879467  0.06757847    -0.08600
C2552       C  0.66741153  0.71785685  0.07881580     0.06100
C2553       C  0.63962401  0.69187431  0.07080081    -0.08000
H2554       H  0.66995543  0.67587667  0.02562228     0.11700
H2555       H  0.71745453  0.74881590  0.07383639     0.09200
H2556       H  0.61757521  0.68315863  0.07967020     0.09100
C2557       C  0.97467034  0.84204064  0.38503699     0.06100
C2558       C  0.00336410  0.85311595  0.37390854    -0.10000
C2559       C  0.53082849  0.87944015  0.38186133     0.03600
C2560       C  0.52970867  0.89467855  0.40084891    -0.08600
C2561       C  0.00111710  0.88354999  0.41199634     0.06100
C2562       C  0.97355544  0.85724844  0.40412125    -0.08000
H2563       H  0.00439712  0.84110522  0.35930853     0.11700
H2564       H  0.55106843  0.91498107  0.40702143     0.09200
H2565       H  0.95144836  0.84844492  0.41293353     0.09100
C2566       C  0.67115649  0.94807266  0.34758788     0.06100
C2567       C  0.67200476  0.93288395  0.32836938    -0.10000
C2568       C  0.64418584  0.90675676  0.32050327     0.03600
C2569       C  0.61574257  0.89586010  0.33176917    -0.08600
C2570       C  0.61492279  0.91106314  0.35083543     0.06100
C2571       C  0.64255312  0.93713861  0.35879213    -0.08000
H2572       H  0.69400643  0.94160236  0.31944171     0.11700
H2573       H  0.59420890  0.87576390  0.32559369     0.09200
H2574       H  0.64170052  0.94914568  0.37344911     0.09100
C2575       C  0.61023843  0.61628990  0.18039866     0.06100
C2576       C  0.62757865  0.60523049  0.19192413    -0.10000
C2577       C  0.62963304  0.57945559  0.18389789     0.03600
C2578       C  0.61436400  0.56467951  0.16450002    -0.08600
C2579       C  0.59709381  0.57567165  0.15299398     0.06100
C2580       C  0.59495966  0.60146386  0.16090491    -0.08000
H2581       H  0.63986517  0.61695704  0.20682103     0.11700
H2582       H  0.61613290  0.54481872  0.15827760     0.09200
H2583       H  0.58187655  0.61022399  0.15178519     0.09100
C2584       C  0.71500636  0.55165837  0.24568569     0.06100
C2585       C  0.69762973  0.56265533  0.23433704    -0.10000
C2586       C  0.68204199  0.54781151  0.21505382     0.03600
C2587       C  0.68387571  0.52194474  0.20696229    -0.08600
C2588       C  0.70132437  0.51083219  0.21829760     0.06100
C2589       C  0.71693990  0.52574854  0.23771253    -0.08000
H2590       H  0.69600073  0.58257290  0.24061093     0.11700
H2591       H  0.67134060  0.51019276  0.19214163     0.09200
H2592       H  0.73009408  0.51696902  0.24672045     0.09100
C2593       C  0.51798011  0.79865340  0.84650489     0.06100
C2594       C  0.52868312  0.82741220  0.85744758    -0.10000
C2595       C  0.55470140  0.85501845  0.84936913     0.03600
C2596       C  0.57002282  0.85392888  0.83036510    -0.08600
C2597       C  0.55930132  0.82520429  0.81939767     0.06100
C2598       C  0.53327788  0.79755016  0.82745989    -0.08000
H2599       H  0.51663846  0.82836478  0.87205649     0.11700
H2600       H  0.59014248  0.87535485  0.82410730     0.09200
H2601       H  0.52475986  0.77535173  0.81882413     0.09100
C2602       C  0.62462081  0.49435226  0.88553408     0.06100
C2603       C  0.61019069  0.49493050  0.90519532    -0.10000
C2604       C  0.58398407  0.96717814  0.91305102     0.03600
C2605       C  0.57235799  0.93892775  0.90134710    -0.08600
C2606       C  0.58678234  0.93836709  0.88176788     0.06100
C2607       C  0.61285950  0.96603854  0.87383645    -0.08000
H2608       H  0.61941745  0.51676689  0.91439028     0.11700
H2609       H  0.55217234  0.91743456  0.90746911     0.09200
H2610       H  0.62422855  0.96543626  0.85877911     0.09100
C2611       C  0.89270296  0.87118093  0.65202411     0.06100
C2612       C  0.86609249  0.87220150  0.65956385    -0.10000
C2613       C  0.85131672  0.85682020  0.67906828     0.03600
C2614       C  0.86311189  0.84038542  0.69086528    -0.08600
C2615       C  0.88964046  0.83942718  0.68323429     0.06100
C2616       C  0.90443715  0.85482753  0.66387293    -0.08000
H2617       H  0.85684727  0.88469454  0.65026053     0.11700
H2618       H  0.85151116  0.82812596  0.70579941     0.09200
H2619       H  0.92496451  0.85397778  0.65799491     0.09100
C2620       C  0.95926269  0.77007163  0.71996694     0.06100
C2621       C  0.94384865  0.75417022  0.73914174    -0.10000
C2622       C  0.91764310  0.75581913  0.74674016     0.03600
C2623       C  0.90690909  0.77336179  0.73525997    -0.08600
C2624       C  0.92239272  0.78934670  0.71620021     0.06100
C2625       C  0.94856505  0.78774937  0.70852002    -0.08000
H2626       H  0.95228795  0.74072492  0.74815642     0.11700
H2627       H  0.88660809  0.77461367  0.74115446     0.09200
H2628       H  0.96065277  0.80034937  0.69379741     0.09100
C2629       C  0.68586175  0.62975607  0.51446823     0.06100
C2630       C  0.69676820  0.65834838  0.52571395    -0.10000
C2631       C  0.72282432  0.68603619  0.51773573     0.03600
C2632       C  0.73797611  0.68521551  0.49862049    -0.08600
C2633       C  0.72709667  0.65675780  0.48736405     0.06100
C2634       C  0.70107326  0.62895325  0.49527394    -0.08000
H2635       H  0.68472835  0.65915925  0.54036599     0.11700
H2636       H  0.75800284  0.70675452  0.49239439     0.09200
H2637       H  0.69235883  0.60696447  0.48633509     0.09100
C2638       C  0.79154173  0.82661668  0.55180124     0.06100
C2639       C  0.78044668  0.79796406  0.54059016    -0.10000
C2640       C  0.75467652  0.77024136  0.54880263     0.03600
C2641       C  0.73993509  0.77104540  0.56812531    -0.08600
C2642       C  0.75088828  0.79952002  0.57937327     0.06100
C2643       C  0.77676152  0.82737778  0.57127142    -0.08000
H2644       H  0.79202839  0.79716682  0.52569385     0.11700
H2645       H  0.71999337  0.74950351  0.57443144     0.09200
H2646       H  0.78545137  0.84942730  0.58012223     0.09100
C2647       C  0.68609409  0.52551624  0.01396647     0.06100
C2648       C  0.70105877  0.54063789  0.99441945    -0.10000
C2649       C  0.72698364  0.53848493  0.98668291     0.03600
C2650       C  0.73784517  0.52126224  0.99837891    -0.08600
C2651       C  0.72293787  0.50612284  0.01777129     0.06100
C2652       C  0.69710684  0.50823673  0.02563404    -0.08000
H2653       H  0.69241158  0.55372260  0.98519111     0.11700
H2654       H  0.75780233  0.51950520  0.99233423     0.09200
H2655       H  0.68537337  0.99613819  0.04057857     0.09100
C2656       C  0.79242912  0.93561722  0.05284004     0.06100
C2657       C  0.77819366  0.92086906  0.07258932    -0.10000
C2658       C  0.75263596  0.92320908  0.08073819     0.03600
C2659       C  0.74133370  0.94022826  0.06926738    -0.08600
C2660       C  0.75550206  0.95496342  0.04960512     0.06100
C2661       C  0.78102667  0.95266219  0.04130809    -0.08000
H2662       H  0.78714223  0.90791786  0.08166797     0.11700
H2663       H  0.72159149  0.94207161  0.07566115     0.09200
H2664       H  0.79225724  0.96447918  0.02617428     0.09100
C2665       C  0.62510114  0.60204155  0.38539161     0.06100
C2666       C  0.61340458  0.61865193  0.37369030    -0.10000
C2667       C  0.58685954  0.61954977  0.38139027     0.03600
C2668       C  0.57203407  0.60393573  0.40070409    -0.08600
C2669       C  0.58380059  0.58747908  0.41240375     0.06100
C2670       C  0.61033009  0.58650195  0.40479305    -0.08000
H2671       H  0.62509117  0.63109427  0.35882756     0.11700
H2672       H  0.55152554  0.60474081  0.40667250     0.09200
H2673       H  0.61958141  0.57393543  0.41401124     0.09100
C2674       C  0.51772815  0.69021897  0.34629297     0.06100
C2675       C  0.53295330  0.70632407  0.32710351    -0.10000
C2676       C  0.55883383  0.70439935  0.31907229     0.03600
C2677       C  0.56943820  0.68645223  0.33016077    -0.08600
C2678       C  0.55421996  0.67036520  0.34924761     0.06100
C2679       C  0.52836083  0.67217905  0.35733753    -0.08000
H2680       H  0.52454608  0.72002037  0.31837674     0.11700
H2681       H  0.58945489  0.68496150  0.32393180     0.09200
H2682       H  0.51642220  0.65941391  0.37204975     0.09100
C2683       C  0.95666292  0.66199621  0.21759014     0.06100
C2684       C  0.94545897  0.63348554  0.20620700    -0.10000
C2685       C  0.91928538  0.60584570  0.21408771     0.03600
C2686       C  0.90418342  0.60658256  0.23325204    -0.08600
C2687       C  0.91527989  0.63492714  0.24470356     0.06100
C2688       C  0.94154753  0.66272607  0.23690255    -0.08000
H2689       H  0.95738516  0.63268961  0.19148881     0.11700
H2690       H  0.88403420  0.58504977  0.23937182     0.09200
H2691       H  0.95043257  0.68463750  0.24595629     0.09100
C2692       C  0.85139711  0.96541101  0.18016261     0.06100
C2693       C  0.86219822  0.99415086  0.19117006    -0.10000
C2694       C  0.88826548  0.52174135  0.18311207     0.03600
C2695       C  0.90359128  0.52068985  0.16414659    -0.08600
C2696       C  0.89278049  0.99207248  0.15309538     0.06100
C2697       C  0.86667939  0.96437704  0.16106926    -0.08000
H2698       H  0.85012217  0.99512857  0.20575247     0.11700
H2699       H  0.92371364  0.54213742  0.15790419     0.09200
H2700       H  0.85808389  0.94225030  0.15232817     0.09100
C2701       C  0.75865702  0.82337690  0.32118867     0.06100
C2702       C  0.77611925  0.85187003  0.33247103    -0.10000
C2703       C  0.79234042  0.85288448  0.35152405     0.03600
C2704       C  0.79105651  0.82537007  0.35945561    -0.08600
C2705       C  0.77356043  0.79671162  0.34824790     0.06100
C2706       C  0.75728998  0.79570640  0.32907099    -0.08000
H2707       H  0.77741415  0.87331232  0.32628393     0.11700
H2708       H  0.80410253  0.82638652  0.37406093     0.09200
H2709       H  0.74415527  0.77369779  0.32013223     0.09100
C2710       C  0.86489523  0.99350633  0.38519637     0.06100
C2711       C  0.88107562  0.49464503  0.40438937    -0.10000
C2712       C  0.87947784  0.96702215  0.41245070     0.03600
C2713       C  0.86176052  0.93836342  0.40140868    -0.08600
C2714       C  0.84553590  0.93721447  0.38232593     0.06100
C2715       C  0.84709201  0.96474822  0.37416977    -0.08000
H2716       H  0.89453416  0.51680225  0.41312151     0.11700
H2717       H  0.86042936  0.91696944  0.40772861     0.09200
H2718       H  0.83416271  0.96371098  0.35949720     0.09100
C2719       C  0.71050300  0.63160246  0.74724564     0.06100
C2720       C  0.69271944  0.60292087  0.73616020    -0.10000
C2721       C  0.67683397  0.60189944  0.71688717     0.03600
C2722       C  0.67872935  0.62953930  0.70864523    -0.08600
C2723       C  0.69651240  0.65826150  0.71969800     0.06100
C2724       C  0.71239296  0.65929817  0.73902787    -0.08000
H2725       H  0.69124380  0.58147885  0.74250463     0.11700
H2726       H  0.66617240  0.62864131  0.69380644     0.09200
H2727       H  0.72592871  0.68147645  0.74772113     0.09100
C2728       C  0.60912904  0.96302775  0.67973184     0.06100
C2729       C  0.62506375  0.99113257  0.69175249    -0.10000
C2730       C  0.62669916  0.51883883  0.68387926     0.03600
C2731       C  0.61233763  0.51850769  0.66404744    -0.08600
C2732       C  0.59635913  0.99049237  0.65200258     0.06100
C2733       C  0.59481106  0.96272486  0.65979342    -0.08000
H2734       H  0.63651004  0.99154900  0.70702679     0.11700
H2735       H  0.61363199  0.54000656  0.65799044     0.09200
H2736       H  0.58265625  0.94106208  0.65036347     0.09100
C2737       C  0.83605888  0.52309694  0.51348900     0.06100
C2738       C  0.80730640  0.50513850  0.52452744    -0.10000
C2739       C  0.77958803  0.50315361  0.51629025     0.03600
C2740       C  0.78057766  0.51910346  0.49707504    -0.08600
C2741       C  0.80923767  0.53700053  0.48601451     0.06100
C2742       C  0.83700918  0.53904183  0.49421701    -0.08000
H2743       H  0.80641671  0.99240021  0.53926429     0.11700
H2744       H  0.75906600  0.51743083  0.49067436     0.09200
H2745       H  0.85915413  0.55259810  0.48548360     0.09100
C2746       C  0.63904251  0.93166502  0.55058181     0.06100
C2747       C  0.66774026  0.94897193  0.53935959    -0.10000
C2748       C  0.69526892  0.95039013  0.54744953     0.03600
C2749       C  0.69418635  0.93451861  0.56671463    -0.08600
C2750       C  0.66564263  0.91728911  0.57801880     0.06100
C2751       C  0.63801063  0.91581930  0.56996497    -0.08000
H2752       H  0.66874865  0.96166555  0.52457172     0.11700
H2753       H  0.71558162  0.93580169  0.57299915     0.09200
H2754       H  0.61594928  0.90277472  0.57886790     0.09100
C2755       C  0.80537958  0.76551956  0.21764331     0.06100
C2756       C  0.80433021  0.74940105  0.23687889    -0.10000
C2757       C  0.83184820  0.75032377  0.24459233     0.03600
C2758       C  0.86024634  0.76720525  0.23310372    -0.08600
C2759       C  0.86131592  0.78335368  0.21400214     0.06100
C2760       C  0.83393517  0.78253333  0.20623918    -0.08000
H2761       H  0.78238765  0.73664164  0.24595204     0.11700
H2762       H  0.88157364  0.76811875  0.23917174     0.09200
H2763       H  0.83496530  0.79549054  0.19158572     0.09100
C2764       C  0.50221861  0.85664465  0.18076592     0.06100
C2765       C  0.97326036  0.83807589  0.19140825    -0.10000
C2766       C  0.94572288  0.83651728  0.18321983     0.03600
C2767       C  0.94707491  0.85342485  0.16443594    -0.08600
C2768       C  0.97595805  0.87186617  0.15376739     0.06100
C2769       C  0.50356016  0.87354192  0.16192818    -0.08000
H2770       H  0.97209169  0.82461822  0.20581835     0.11700
H2771       H  0.92568516  0.85204469  0.15805092     0.09200
H2772       H  0.52587649  0.88752852  0.15347023     0.09100
C2773       C  0.94101689  0.63020763  0.01561755     0.06100
C2774       C  0.95751258  0.65877969  0.02711557    -0.10000
C2775       C  0.95884107  0.68622900  0.01892985     0.03600
C2776       C  0.94365132  0.68516968  0.99933870    -0.08600
C2777       C  0.92722733  0.65677859  0.98777314     0.06100
C2778       C  0.92584219  0.62923200  0.99590960    -0.08000
H2779       H  0.96979986  0.65980139  0.04211596     0.11700
H2780       H  0.94496884  0.70652399  0.99295005     0.09200
H2781       H  0.91347533  0.60730348  0.98678657     0.09100
C2782       C  0.53406609  0.82804057  0.05079805     0.06100
C2783       C  0.51490481  0.79894161  0.04043750    -0.10000
C2784       C  0.51258831  0.77123270  0.04898929     0.03600
C2785       C  0.52935727  0.77256414  0.06783946    -0.08600
C2786       C  0.54843092  0.80152773  0.07823055     0.06100
C2787       C  0.55089535  0.82932109  0.06969713    -0.08000
H2788       H  0.50148112  0.79778910  0.02601076     0.11700
H2789       H  0.52735441  0.75105270  0.07451610     0.09200
H2790       H  0.56529599  0.85170635  0.07797234     0.09100
C2791       C  0.66877068  0.68764840  0.84633183     0.06100
C2792       C  0.63992493  0.66957993  0.85716861    -0.10000
C2793       C  0.61241533  0.66799177  0.84896756     0.03600
C2794       C  0.61362510  0.68442040  0.82995965    -0.08600
C2795       C  0.64238851  0.70241584  0.81904103     0.06100
C2796       C  0.67002264  0.70406008  0.82721169    -0.08000
H2797       H  0.63882783  0.65656250  0.87180827     0.11700
H2798       H  0.59222825  0.68309158  0.82363660     0.09200
H2799       H  0.69227823  0.71775408  0.81863302     0.09100
C2800       C  0.99946192  0.58495989  0.91202506     0.06100
C2801       C  0.52778661  0.60121673  0.90035349    -0.10000
C2802       C  0.52874505  0.61651510  0.88084162     0.03600
C2803       C  0.00139687  0.61548966  0.87286126    -0.08600
C2804       C  0.97296419  0.59915961  0.88444216     0.06100
C2805       C  0.97197108  0.58390095  0.90409608    -0.08000
H2806       H  0.54909344  0.60220241  0.90653580     0.11700
H2807       H  0.00235430  0.62775233  0.85786139     0.09200
H2808       H  0.95006956  0.57159125  0.91326130     0.09100
O2809       O  0.85667448  0.61683179  0.80918203    -0.77200
O2810       O  0.72114090  0.59168142  0.88412102    -0.78700
O2811       O  0.77553778  0.54519246  0.84772464    -0.75700
O2812       O  0.75629443  0.61027489  0.81037824    -0.74100
O2813       O  0.77759934  0.66412507  0.80990950    -0.75900
O2814       O  0.80530607  0.54964738  0.87788806    -0.76800
O2815       O  0.72523576  0.56726586  0.85334036    -0.78200
O2816       O  0.80276284  0.58434876  0.80885276    -0.78500
Eu2817     Eu  0.78065523  0.59685630  0.84064076     2.39200
O2818       O  0.77306403  0.63768411  0.85372383    -0.86000
O2819       O  0.82985809  0.60480220  0.85291657    -0.89600
C2820       C  0.83068053  0.59435666  0.80104222     1.05100
C2821       C  0.70973217  0.56963167  0.86961139     1.04900
C2822       C  0.78718366  0.53412855  0.86171987     1.04900
C2823       C  0.75931963  0.63609045  0.80237236     1.02700
H2824       H  0.76515424  0.57591064  0.88438124     0.32500
O2825       O  0.78128371  0.59628278  0.87905039    -0.98400
H2826       H  0.82137260  0.64593979  0.81207180     0.32500
O2827       O  0.82160216  0.64583570  0.82783684    -1.00900
O2828       O  0.78736679  0.67423287  0.92315339    -0.78100
O2829       O  0.92236841  0.70029712  0.84789796    -0.77700
O2830       O  0.79395698  0.58107360  0.92250561    -0.76100
O2831       O  0.76726206  0.69142030  0.84885192    -0.79400
O2832       O  0.85055532  0.71058115  0.81009551    -0.77300
O2833       O  0.87608814  0.59848346  0.88284589    -0.75900
O2834       O  0.88611264  0.68046691  0.92277875    -0.77500
O2835       O  0.86904757  0.74653804  0.88394179    -0.79400
O2836       O  0.86527075  0.62666729  0.92287429    -0.76100
O2837       O  0.83949101  0.74212468  0.85365307    -0.78800
O2838       O  0.76133930  0.60226298  0.92336484    -0.74500
O2839       O  0.90048806  0.62777067  0.85229909    -0.74600
O2840       O  0.88322672  0.68944971  0.80912686    -0.74200
O2841       O  0.74266352  0.66173179  0.87919717    -0.77700
O2842       O  0.84121408  0.70709443  0.92336940    -0.77100
O2843       O  0.91811358  0.72460598  0.87868414    -0.75500
Eu2844     Eu  0.77333698  0.63730995  0.89204346     2.39800
Eu2845     Eu  0.87070164  0.65367967  0.84023246     2.39600
Eu2846     Eu  0.83041697  0.60459539  0.89126532     2.38400
Eu2847     Eu  0.81385547  0.68673984  0.84096367     2.39900
Eu2848     Eu  0.86314457  0.69448952  0.89167824     2.39800
O2849       O  0.86282911  0.69460655  0.85330172    -0.89900
O2850       O  0.82246374  0.64536518  0.90426885    -0.88800
C2851       C  0.81332025  0.69689655  0.93123239     1.05300
C2852       C  0.93354199  0.72250835  0.86229991     1.04000
C2853       C  0.77149922  0.58438277  0.93088217     1.03400
C2854       C  0.74479890  0.67966391  0.86303683     1.05400
C2855       C  0.87312845  0.70749472  0.80176613     1.04300
C2856       C  0.89817030  0.60958349  0.86836392     1.03200
C2857       C  0.88282750  0.65452690  0.93084667     1.03200
C2858       C  0.85768381  0.75772906  0.86978571     1.05900
H2859       H  0.89173169  0.65811806  0.88390333     0.33200
O2860       O  0.87136266  0.65396622  0.87865959    -1.02000
H2861       H  0.80959963  0.70239926  0.88485727     0.35300
O2862       O  0.81378035  0.68632357  0.87937204    -1.04600
O2863       O  0.92328289  0.95019117  0.97732466    -0.77200
O2864       O  0.53611777  0.92597945  0.05007032    -0.78700
O2865       O  0.51696254  0.94437312  0.97659217    -0.75700
O2866       O  0.93504579  0.87837635  0.01601889    -0.74100
O2867       O  0.91067501  0.88258213  0.04677959    -0.75900
O2868       O  0.55001642  0.99817508  0.97628236    -0.76800
O2869       O  0.00635157  0.90124535  0.01977216    -0.78200
O2870       O  0.94435949  0.91748135  0.97667720    -0.78500
Eu2871     Eu  0.98033874  0.93068198  0.00770827     2.39200
O2872       O  0.98105571  0.93058189  0.04608730    -0.86000
O2873       O  0.98821586  0.97962001  0.99511801    -0.89600
C2874       C  0.92623353  0.92739803  0.96918701     1.05100
C2875       C  0.52479998  0.90374367  0.03567090     1.04900
C2876       C  0.53977701  0.97020722  0.96854952     1.04900
C2877       C  0.91301865  0.86699844  0.03055334     1.02700
H2878       H  0.54562666  0.96757323  0.01469578     0.32500
O2879       O  0.52938322  0.97153016  0.02015159    -0.98400
H2880       H  0.91894766  0.92225227  0.01545040     0.32500
O2881       O  0.93932672  0.93857332  0.02064732    -1.00900
O2882       O  0.55413180  0.50929455  0.08909555    -0.78100
O2883       O  0.94073351  0.53303074  0.01658826    -0.77700
O2884       O  0.58980612  0.52765821  0.01551878    -0.76100
O2885       O  0.95422761  0.91570623  0.08998604    -0.79400
O2886       O  0.88807755  0.93257708  0.05134273    -0.77300
O2887       O  0.52308534  0.54319470  0.97650008    -0.75900
O2888       O  0.54258887  0.58040480  0.05073635    -0.77500
O2889       O  0.95964893  0.51461168  0.08969183    -0.79400
O2890       O  0.56699994  0.57599749  0.02007505    -0.76100
O2891       O  0.92702177  0.96073395  0.09018400    -0.78800
O2892       O  0.58576593  0.99844610  0.04591313    -0.74500
O2893       O  0.96922609  0.52205493  0.97641383    -0.74600
O2894       O  0.89233404  0.96200137  0.02102669    -0.74200
O2895       O  0.50812398  0.93699465  0.09019034    -0.77700
O2896       O  0.53259987  0.54162801  0.08979524    -0.77100
O2897       O  0.97020640  0.55776523  0.04698604    -0.75500
Eu2898     Eu  0.53024494  0.97194085  0.05850227     2.39800
Eu2899     Eu  0.94733415  0.98747216  0.00810372     2.39600
Eu2900     Eu  0.53732776  0.52065846  0.00762884     2.38400
Eu2901     Eu  0.94006145  0.93825294  0.05897865     2.39900
Eu2902     Eu  0.49661292  0.52842338  0.05882592     2.39800
O2903       O  0.94773988  0.98721724  0.04644124    -0.89900
O2904       O  0.53774472  0.52070776  0.04597706    -0.88800
C2905       C  0.55084142  0.53184627  0.09725342     1.05300
C2906       C  0.95178126  0.55521946  0.03102897     1.04000
C2907       C  0.60127843  0.51672993  0.02979350     1.03400
C2908       C  0.98020501  0.91921871  0.09807295     1.05400
C2909       C  0.87684172  0.94386571  0.03716278     1.04300
C2910       C  0.49707180  0.53973427  0.96845986     1.03200
C2911       C  0.56472064  0.59161962  0.03627051     1.03200
C2912       C  0.93701517  0.98872583  0.09779501     1.05900
H2913       H  0.50057229  0.54902110  0.01514982     0.33200
O2914       O  0.49663497  0.52874952  0.02046437    -1.02000
H2915       H  0.98930354  0.97968109  0.08719200     0.35300
O2916       O  0.98912654  0.97957281  0.07142777    -1.04600
O2917       O  0.88659683  0.67548656  0.42200213    -0.77200
O2918       O  0.77392327  0.69983057  0.34921267    -0.78700
O2919       O  0.87616671  0.74640401  0.38399228    -0.75700
O2920       O  0.79253910  0.68052834  0.42293546    -0.74100
O2921       O  0.76017252  0.62658967  0.42348421    -0.75900
O2922       O  0.90043192  0.74188266  0.35326834    -0.76800
O2923       O  0.80319070  0.72453232  0.37968211    -0.78200
O2924       O  0.86535118  0.70807182  0.42272616    -0.78500
Eu2925     Eu  0.82931799  0.69489598  0.39178971     2.39200
O2926       O  0.78045026  0.65369817  0.37943792    -0.86000
O2927       O  0.87020409  0.68687234  0.37885701    -0.89600
C2928       C  0.88351308  0.69816103  0.43014223     1.05100
C2929       C  0.78489490  0.72202548  0.36362768     1.04900
C2930       C  0.89841530  0.75741875  0.36960514     1.04900
C2931       C  0.77021366  0.65453190  0.43118622     1.02700
H2932       H  0.83378772  0.71571313  0.34801927     0.32500
O2933       O  0.82973212  0.69542505  0.35338381    -0.98400
H2934       H  0.82191173  0.64590026  0.42012376     0.32500
O2935       O  0.82169868  0.64593789  0.40435690    -1.00900
O2936       O  0.75711478  0.61762394  0.31000428    -0.78100
O2937       O  0.86775799  0.59174704  0.38364287    -0.77700
O2938       O  0.85593069  0.70903821  0.30916590    -0.76100
O2939       O  0.72098798  0.59947443  0.38437011    -0.79400
O2940       O  0.78681914  0.58100024  0.42234035    -0.77300
O2941       O  0.92229447  0.69310753  0.34828600    -0.75900
O2942       O  0.84937486  0.61074450  0.30921373    -0.77500
O2943       O  0.76794696  0.54492790  0.34872991    -0.79400
O2944       O  0.88213588  0.66457573  0.30878375    -0.76100
O2945       O  0.74341915  0.54904160  0.37943763    -0.78800
O2946       O  0.80211066  0.68812696  0.30918953    -0.74500
O2947       O  0.91803865  0.66403901  0.37880775    -0.74600
O2948       O  0.84072817  0.60255363  0.42272774    -0.74200
O2949       O  0.72546780  0.62898024  0.35405093    -0.77700
O2950       O  0.77829263  0.58499897  0.30932434    -0.77100
O2951       O  0.83828483  0.56710713  0.35323583    -0.75500
Eu2952     Eu  0.78038200  0.65416407  0.34112064     2.39800
Eu2953     Eu  0.86270311  0.63819900  0.39143315     2.39600
Eu2954     Eu  0.87016884  0.68686873  0.34053122     2.38400
Eu2955     Eu  0.77271756  0.60459381  0.39183895     2.39900
Eu2956     Eu  0.81321101  0.59716851  0.34065494     2.39800
O2957       O  0.81365016  0.59703035  0.37895906    -0.89900
O2958       O  0.82105412  0.64605528  0.32825668    -0.88800
C2959       C  0.76051316  0.59520259  0.30170712     1.05300
C2960       C  0.85627492  0.56937706  0.36937613     1.04000
C2961       C  0.82989931  0.70547834  0.30108301     1.03400
C2962       C  0.70993176  0.61094950  0.37020819     1.05400
C2963       C  0.81276944  0.58433030  0.43037597     1.04300
C2964       C  0.93357312  0.68207948  0.36261494     1.03200
C2965       C  0.87178762  0.63666551  0.30094449     1.03200
C2966       C  0.74594144  0.53349938  0.36325871     1.05900
H2967       H  0.87842711  0.63356444  0.34755577     0.33200
O2968       O  0.86233530  0.63774336  0.35303877    -1.02000
H2969       H  0.75172083  0.58880941  0.34817860     0.35300
O2970       O  0.77207548  0.60504646  0.35347759    -1.04600
O2971       O  0.70842265  0.91158817  0.71726350    -0.77200
O2972       O  0.68293382  0.77571284  0.64270591    -0.78700
O2973       O  0.75505906  0.85838902  0.68109148    -0.75700
O2974       O  0.68900437  0.87483511  0.64236609    -0.74100
O2975       O  0.63512172  0.85348555  0.64207749    -0.75900
O2976       O  0.75095877  0.82939392  0.71161391    -0.76800
O2977       O  0.71562717  0.82957870  0.64224474    -0.78200
O2978       O  0.73330195  0.90693468  0.68694068    -0.78500
Eu2979     Eu  0.70289074  0.85203337  0.67353882     2.39200
O2980       O  0.65384641  0.81094654  0.66108360    -0.86000
O2981       O  0.70294922  0.85229318  0.71185061    -0.89600
C2982       C  0.73103587  0.92251604  0.70318513     1.05100
C2983       C  0.70562198  0.80162094  0.63459538     1.04900
C2984       C  0.76641576  0.84736750  0.69535439     1.04900
C2985       C  0.66301195  0.87127892  0.63420449     1.02700
H2986       H  0.71108941  0.79872778  0.68074929     0.32500
O2987       O  0.69495381  0.80289199  0.68612914    -0.98400
H2988       H  0.66638123  0.88058744  0.68083886     0.32500
O2989       O  0.66226964  0.86029582  0.68623512    -1.00900
O2990       O  0.60037420  0.70987841  0.68202612    -0.78100
O2991       O  0.62501143  0.84633451  0.75557345    -0.77700
O2992       O  0.70025362  0.75693580  0.71710346    -0.76100
O2993       O  0.58951098  0.78198241  0.64297635    -0.79400
O2994       O  0.60680188  0.86485785  0.68158479    -0.77300
O2995       O  0.71930803  0.84117714  0.75506190    -0.75900
O2996       O  0.61984652  0.74672848  0.75559697    -0.77500
O2997       O  0.55395614  0.76519670  0.71781428    -0.79400
O2998       O  0.67378910  0.76852969  0.75598535    -0.76100
O2999       O  0.55827657  0.79440582  0.68735586    -0.78800
O3000       O  0.67079210  0.73194510  0.68675502    -0.74500
O3001       O  0.69748759  0.87324796  0.75583337    -0.74600
O3002       O  0.63587845  0.88958490  0.71212524    -0.74200
O3003       O  0.61074264  0.74939266  0.64241408    -0.77700
O3004       O  0.57589533  0.71433815  0.71265205    -0.77100
O3005       O  0.59293792  0.79239985  0.75653070    -0.75500
Eu3006     Eu  0.64592540  0.76204786  0.67373055     2.39800
Eu3007     Eu  0.66180742  0.86001581  0.72463633     2.39600
Eu3008     Eu  0.69561144  0.80373108  0.72449307     2.38400
Eu3009     Eu  0.61302227  0.81898399  0.67385660     2.39900
Eu3010     Eu  0.60553464  0.76994298  0.72496401     2.39800
O3011       O  0.61306779  0.81877593  0.71219923    -0.89900
O3012       O  0.64653853  0.76243839  0.71205776    -0.88800
C3013       C  0.57829480  0.69862766  0.69652985     1.05300
C3014       C  0.60276979  0.82047600  0.76397935     1.04000
C3015       C  0.68869704  0.73434982  0.70299681     1.03400
C3016       C  0.59284339  0.75946433  0.63478006     1.05400
C3017       C  0.61784646  0.88715187  0.69592732     1.04300
C3018       C  0.71583857  0.86358430  0.76329042     1.03200
C3019       C  0.64586730  0.75027886  0.76367255     1.03200
C3020       C  0.54289626  0.77674569  0.70372317     1.05900
H3021       H  0.65465768  0.81138930  0.75317454     0.33200
O3022       O  0.65447781  0.81131606  0.73740960    -1.02000
H3023       H  0.58448558  0.75381056  0.68129483     0.35300
O3024       O  0.60486253  0.77006205  0.68653613    -1.04600
O3025       O  0.69015160  0.78412081  0.14277950    -0.77200
O3026       O  0.55358574  0.75917197  0.21650072    -0.78700
O3027       O  0.60807882  0.71241680  0.18116232    -0.75700
O3028       O  0.59122602  0.77869142  0.14237798    -0.74100
O3029       O  0.61264798  0.83259251  0.14215949    -0.75900
O3030       O  0.63720749  0.71679694  0.21167664    -0.76800
O3031       O  0.55792636  0.73480241  0.18578077    -0.78200
O3032       O  0.63628954  0.75129643  0.14230559    -0.78500
Eu3033     Eu  0.61363156  0.76430132  0.17348110     2.39200
O3034       O  0.60593507  0.80527262  0.18630557    -0.86000
O3035       O  0.66257907  0.77198534  0.18616179    -0.89600
C3036       C  0.66429941  0.76143488  0.13464420     1.05100
C3037       C  0.54226635  0.73713350  0.20197761     1.04900
C3038       C  0.61923414  0.70123854  0.19548025     1.04900
C3039       C  0.59484849  0.80471400  0.13425790     1.02700
H3040       H  0.59744846  0.74330390  0.21714925     0.32500
O3041       O  0.61370785  0.76365763  0.21186897    -0.98400
H3042       H  0.65522880  0.81366337  0.14534495     0.32500
O3043       O  0.65498792  0.81341479  0.16111221    -1.00900
O3044       O  0.61978888  0.84083919  0.25615829    -0.78100
O3045       O  0.75555711  0.86717353  0.18159917    -0.77700
O3046       O  0.62585367  0.74860331  0.25550655    -0.76100
O3047       O  0.60058181  0.85943964  0.18181443    -0.79400
O3048       O  0.68532286  0.87897150  0.14389570    -0.77300
O3049       O  0.70828033  0.76540557  0.21652653    -0.75900
O3050       O  0.71776862  0.84765635  0.25632699    -0.77500
O3051       O  0.70245037  0.91420291  0.21699126    -0.79400
O3052       O  0.69640804  0.79379019  0.25655852    -0.76100
O3053       O  0.67322384  0.90997129  0.18656718    -0.78800
O3054       O  0.59316372  0.76970408  0.25606331    -0.74500
O3055       O  0.73323035  0.79480533  0.18615556    -0.74600
O3056       O  0.71766809  0.85744218  0.14323624    -0.74200
O3057       O  0.57591629  0.83001593  0.21224096    -0.77700
O3058       O  0.67363037  0.87377535  0.25648316    -0.77100
O3059       O  0.75102839  0.89176417  0.21211772    -0.75500
Eu3060     Eu  0.60578820  0.80473244  0.22465772     2.39800
Eu3061     Eu  0.70377888  0.82086144  0.17383479     2.39600
Eu3062     Eu  0.66264596  0.77188804  0.22449583     2.38400
Eu3063     Eu  0.64720242  0.85449001  0.17398121     2.39900
Eu3064     Eu  0.69580928  0.86186004  0.22479795     2.39800
O3065       O  0.69587197  0.86191267  0.18652515    -0.89900
O3066       O  0.65474080  0.81278383  0.23707924    -0.88800
C3067       C  0.64574213  0.86327929  0.26437563     1.05300
C3068       C  0.76663745  0.88949827  0.19590640     1.04000
C3069       C  0.60331158  0.75188281  0.26372047     1.03400
C3070       C  0.57822991  0.84803028  0.19612083     1.05400
C3071       C  0.70811542  0.87592604  0.13591633     1.04300
C3072       C  0.73058958  0.77648198  0.20219821     1.03200
C3073       C  0.71393360  0.82160992  0.26457892     1.03200
C3074       C  0.69148320  0.92557341  0.20267253     1.05900
H3075       H  0.72434531  0.82521812  0.21765996     0.33200
O3076       O  0.70408795  0.82118458  0.21221885    -1.02000
H3077       H  0.64248331  0.87010944  0.21781724     0.35300
O3078       O  0.64656466  0.85395141  0.21235444    -1.04600
O3079       O  0.95304739  0.50728426  0.58873030    -0.77200
O3080       O  0.58904819  0.53222250  0.51464058    -0.78700
O3081       O  0.55268411  0.51385552  0.58833827    -0.75700
O3082       O  0.53588837  0.57995595  0.54948769    -0.74100
O3083       O  0.50671188  0.57562864  0.51901474    -0.75900
O3084       O  0.53182019  0.96005375  0.58848903    -0.76800
O3085       O  0.58449977  0.55703734  0.54503924    -0.78200
O3086       O  0.50690736  0.54004244  0.58913878    -0.78500
Eu3087     Eu  0.52926132  0.52765629  0.55753581     2.39200
O3088       O  0.52944923  0.52765842  0.51918979    -0.86000
O3089       O  0.98828690  0.97862494  0.57007704    -0.89600
C3090       C  0.97895884  0.52980506  0.59693171     1.05100
C3091       C  0.60019894  0.55446338  0.52902319     1.04900
C3092       C  0.54970115  0.98798437  0.59625904     1.04900
C3093       C  0.52487793  0.59124921  0.53513561     1.02700
H3094       H  0.55766517  0.49085473  0.55008613     0.32500
O3095       O  0.53736463  0.98690571  0.54480587    -0.98400
H3096       H  0.97611115  0.53601352  0.55043162     0.32500
O3097       O  0.98014437  0.51979267  0.54503460    -1.00900
O3098       O  0.52320300  0.94946562  0.47566363    -0.78100
O3099       O  0.88708241  0.92510071  0.54948289    -0.77700
O3100       O  0.54158466  0.93077325  0.54905173    -0.76100
O3101       O  0.51794914  0.54363536  0.47610692    -0.79400
O3102       O  0.93439730  0.52566525  0.51462094    -0.77300
O3103       O  0.95974846  0.91463039  0.58837856    -0.75900
O3104       O  0.94102418  0.87814088  0.51415275    -0.77500
O3105       O  0.92359246  0.94430028  0.47578802    -0.79400
O3106       O  0.97037702  0.88260484  0.54456393    -0.76100
O3107       O  0.94537856  0.99823291  0.47533933    -0.78800
O3108       O  0.56637967  0.95999172  0.51859357    -0.74500
O3109       O  0.92694514  0.93561898  0.58878219    -0.74600
O3110       O  0.90964312  0.99629907  0.54504454    -0.74200
O3111       O  0.55018356  0.52198554  0.47533504    -0.77700
O3112       O  0.96925188  0.91722022  0.47501679    -0.77100
O3113       O  0.89129819  0.90043590  0.51888524    -0.75500
Eu3114     Eu  0.53705212  0.98636497  0.50649578     2.39800
Eu3115     Eu  0.93935694  0.97078227  0.55749551     2.39600
Eu3116     Eu  0.99624411  0.93774101  0.55726395     2.38400
Eu3117     Eu  0.98067626  0.52014762  0.50670067     2.39900
Eu3118     Eu  0.94683380  0.93006342  0.50640434     2.39800
O3119       O  0.93928836  0.97113630  0.51915730    -0.89900
O3120       O  0.99580972  0.93754834  0.51892429    -0.88800
C3121       C  0.49726448  0.92708839  0.46745109     1.05300
C3122       C  0.87574607  0.90283224  0.53511431     1.04000
C3123       C  0.56381116  0.94171354  0.53465547     1.03400
C3124       C  0.54038849  0.54022715  0.46789626     1.05400
C3125       C  0.91205824  0.51439442  0.52893993     1.04300
C3126       C  0.93712061  0.91784929  0.59649021     1.03200
C3127       C  0.95225125  0.86700805  0.52844495     1.03200
C3128       C  0.92712172  0.97029825  0.46771637     1.05900
H3129       H  0.93106960  0.90941493  0.55009354     0.33200
O3130       O  0.94732057  0.92973457  0.54475726    -1.02000
H3131       H  0.98821967  0.97905376  0.47809155     0.35300
O3132       O  0.98821940  0.97895336  0.49385735    -1.04600
C3133       C  0.49889791  0.55663344  0.94890210    -0.10300
C3134       C  0.99896000  0.56968616  0.93220330    -0.11900
C3135       C  0.94544600  0.59984243  0.87677359    -0.10300
C3136       C  0.92331103  0.60286732  0.87151709    -0.11900
C3137       C  0.64329591  0.71889672  0.79936338    -0.10300
C3138       C  0.64385959  0.73279346  0.78296908    -0.11900
C3139       C  0.71913763  0.68549645  0.85955364    -0.10300
C3140       C  0.69660434  0.68776409  0.85418642    -0.11900
C3141       C  0.58285279  0.64936864  0.86000244    -0.10300
C3142       C  0.55807851  0.63409301  0.86935269    -0.11900
C3143       C  0.56468462  0.80237482  0.09799962    -0.10300
C3144       C  0.57805446  0.80279113  0.11462408    -0.11900
C3145       C  0.53170319  0.87864897  0.03849353    -0.10300
C3146       C  0.53428201  0.85605160  0.04316939    -0.11900
C3147       C  0.94172881  0.60257169  0.02316998    -0.10300
C3148       C  0.94475591  0.58026190  0.02804045    -0.11900
C3149       C  0.91234359  0.65635272  0.96738660    -0.10300
C3150       C  0.89962518  0.65640140  0.95052198    -0.11900
C3151       C  0.99283161  0.74124935  0.03863759    -0.10300
C3152       C  0.97695143  0.71592972  0.03001398    -0.11900
C3153       C  0.55284017  0.85434214  0.19298336    -0.10300
C3154       C  0.53012288  0.85663440  0.18825325    -0.11900
C3155       C  0.97706827  0.88846532  0.13415367    -0.10300
C3156       C  0.97805454  0.90223879  0.11762411    -0.11900
C3157       C  0.83144611  0.73472900  0.26457750    -0.10300
C3158       C  0.83159684  0.72187918  0.28131452    -0.11900
C3159       C  0.75559107  0.76953727  0.20540602    -0.10300
C3160       C  0.77778835  0.76641520  0.21035053    -0.11900
C3161       C  0.89085986  0.80162567  0.20283369    -0.10300
C3162       C  0.91593635  0.81734549  0.19390774    -0.11900
C3163       C  0.66507346  0.90155360  0.59801967    -0.10300
C3164       C  0.66492662  0.88827243  0.61464367    -0.11900
C3165       C  0.61124602  0.93199130  0.54296218    -0.10300
C3166       C  0.58888422  0.93480171  0.53786881    -0.11900
C3167       C  0.80996130  0.55298148  0.46613176    -0.10300
C3168       C  0.81062083  0.56672676  0.44963791    -0.11900
C3169       C  0.86408037  0.52327360  0.52102323    -0.10300
C3170       C  0.88677442  0.52092392  0.52580130    -0.11900
C3171       C  0.72489574  0.96876025  0.53632878    -0.10300
C3172       C  0.74993893  0.98436149  0.52729548    -0.11900
C3173       C  0.60904693  0.93504150  0.68730269    -0.10300
C3174       C  0.61142032  0.91247859  0.69248678    -0.11900
C3175       C  0.56751401  0.99011522  0.61540818    -0.10300
C3176       C  0.58115226  0.99032667  0.63185534    -0.11900
C3177       C  0.69470349  0.70883698  0.70661163    -0.10300
C3178       C  0.69685989  0.68621619  0.71188460    -0.11900
C3179       C  0.74118438  0.63362565  0.78331446    -0.10300
C3180       C  0.72689291  0.63256216  0.76699828    -0.11900
C3181       C  0.64376350  0.54786055  0.69587039    -0.10300
C3182       C  0.65860839  0.57245380  0.70555341    -0.11900
C3183       C  0.86485589  0.52135255  0.37760704    -0.10300
C3184       C  0.86249200  0.54395046  0.37264037    -0.11900
C3185       C  0.90959339  0.96827274  0.44850437    -0.10300
C3186       C  0.89575518  0.96781963  0.43214435    -0.11900
C3187       C  0.77441416  0.76906513  0.35556970    -0.10300
C3188       C  0.77776719  0.74697874  0.36051667    -0.11900
C3189       C  0.74303739  0.82307124  0.30119861    -0.10300
C3190       C  0.73024635  0.82331397  0.28443149    -0.11900
C3191       C  0.82679785  0.90755321  0.37142271    -0.10300
C3192       C  0.81104827  0.88248041  0.36251930    -0.11900
C3193       C  0.92169523  0.99094059  0.11704083    -0.10300
C3194       C  0.90836819  0.99140883  0.13342321    -0.11900
C3195       C  0.82341568  0.93748920  0.18765978    -0.10300
C3196       C  0.79838134  0.91488583  0.19261015    -0.11900
C3197       C  0.88660224  0.63472918  0.28130245    -0.10300
C3198       C  0.89985933  0.63501136  0.26466016    -0.11900
C3199       C  0.98495906  0.68981967  0.21021324    -0.10300
C3200       C  0.51025145  0.71206740  0.20516458    -0.11900
C3201       C  0.90835353  0.57638819  0.20293873    -0.10300
C3202       C  0.89904859  0.55136391  0.19399947    -0.11900
C3203       C  0.96528016  0.68848394  0.35917019    -0.10300
C3204       C  0.99010309  0.69065283  0.35398319    -0.11900
C3205       C  0.58808357  0.73442441  0.28304210    -0.10300
C3206       C  0.57459390  0.72065485  0.29941219    -0.11900
C3207       C  0.55560983  0.55784426  0.44869023    -0.10300
C3208       C  0.56859932  0.57164073  0.43224470    -0.11900
C3209       C  0.67828974  0.60468457  0.37352570    -0.10300
C3210       C  0.65326586  0.60237534  0.37819298    -0.11900
C3211       C  0.57511499  0.63703264  0.36979888    -0.10300
C3212       C  0.56527940  0.65200629  0.36046360    -0.11900
C3213       C  0.84505820  0.93733519  0.04048210    -0.10300
C3214       C  0.82010073  0.93515806  0.04528154    -0.11900
C3215       C  0.72407854  0.89416300  0.11708422    -0.10300
C3216       C  0.73759821  0.90791193  0.10075581    -0.11900
C3217       C  0.74265714  0.55378652  0.96673772    -0.10300
C3218       C  0.75632590  0.56699479  0.95025670    -0.11900
C3219       C  0.65824498  0.52594625  0.02134582    -0.10300
C3220       C  0.63322471  0.52356645  0.02637727    -0.11900
C3221       C  0.74401879  0.97291607  0.03830884    -0.10300
C3222       C  0.73405937  0.98798724  0.02924073    -0.11900
C3223       C  0.73520696  0.79980439  0.59914692    -0.10300
C3224       C  0.72130201  0.79961177  0.61543107    -0.11900
C3225       C  0.81916869  0.85473340  0.54395953    -0.10300
C3226       C  0.84398047  0.87741789  0.53861681    -0.11900
C3227       C  0.65759679  0.60186452  0.52162779    -0.10300
C3228       C  0.63223096  0.57940700  0.52612421    -0.11900
C3229       C  0.75537023  0.65648077  0.45076468    -0.10300
C3230       C  0.74235459  0.65648804  0.46742627    -0.11900
C3231       C  0.74346143  0.74069593  0.53769157    -0.10300
C3232       C  0.73378189  0.71558816  0.52877821    -0.11900
C3233       C  0.88828670  0.72536539  0.78258670    -0.10300
C3234       C  0.90166384  0.73949015  0.76630234    -0.11900
C3235       C  0.51153679  0.77114068  0.70747775    -0.10300
C3236       C  0.98691399  0.76947116  0.71258087    -0.11900
C3237       C  0.82315482  0.85646847  0.68648677    -0.10300
C3238       C  0.79814544  0.85383756  0.69175463    -0.11900
C3239       C  0.90822165  0.88687726  0.63217177    -0.10300
C3240       C  0.92179267  0.90040905  0.61577055    -0.11900
C3241       C  0.90145788  0.82216262  0.69501363    -0.10300
C3242       C  0.91130709  0.80739290  0.70460137    -0.11900
C3243       C  0.67781094  0.54456055  0.87289120    -0.10300
C3244       C  0.65266615  0.52221840  0.87800495    -0.11900
C3245       C  0.56867150  0.96756294  0.93298203    -0.10300
C3246       C  0.55523443  0.96795529  0.94935293    -0.11900
C3247       C  0.99012836  0.77069600  0.85404455    -0.10300
C3248       C  0.96518757  0.74798005  0.85895759    -0.11900
C3249       C  0.57485426  0.82417557  0.79976680    -0.10300
C3250       C  0.58777483  0.82297959  0.78335362    -0.11900
C3251       C  0.56567503  0.88451324  0.86055091    -0.10300
C3252       C  0.57517996  0.90918403  0.87006479    -0.11900
C3253       C  0.74341517  0.58022878  0.28225571    -0.10300
C3254       C  0.73036917  0.56692692  0.26566878    -0.11900
C3255       C  0.69841043  0.95755038  0.20594408    -0.10300
C3256       C  0.70118398  0.98275022  0.21086975    -0.11900
C3257       C  0.56845157  0.54722227  0.11646243    -0.10300
C3258       C  0.58181280  0.56046267  0.13298399    -0.11900
C3259       C  0.61014295  0.64427193  0.18765210    -0.10300
C3260       C  0.61262060  0.66940270  0.19229910    -0.11900
C3261       C  0.64806943  0.56848056  0.19511233    -0.10300
C3262       C  0.66354659  0.55884896  0.20399403    -0.11900
C3263       C  0.72112604  0.50147049  0.36010028    -0.10300
C3264       C  0.69896581  0.97620099  0.35503116    -0.11900
C3265       C  0.64430875  0.89128871  0.30064305    -0.10300
C3266       C  0.64389645  0.87799381  0.28402741    -0.11900
C3267       C  0.00027634  0.89896627  0.43167952    -0.10300
C3268       C  0.99951665  0.91199179  0.44812131    -0.11900
C3269       C  0.94680093  0.81397602  0.37765431    -0.10300
C3270       C  0.92402075  0.78900676  0.37288337    -0.11900
C3271       C  0.56040145  0.89059291  0.37085450    -0.10300
C3272       C  0.58543829  0.90013634  0.36190131    -0.11900
C3273       C  0.58990736  0.62355964  0.03934686    -0.10300
C3274       C  0.61248315  0.64874297  0.04411920    -0.11900
C3275       C  0.66654056  0.74629469  0.11525992    -0.10300
C3276       C  0.66692649  0.73318194  0.09871553    -0.11900
C3277       C  0.81122269  0.72569705  0.96707226    -0.10300
C3278       C  0.81135904  0.71221829  0.95063422    -0.11900
C3279       C  0.86535112  0.81009061  0.02201888    -0.10300
C3280       C  0.88784059  0.83508735  0.02726603    -0.11900
C3281       C  0.72636976  0.72479341  0.03724994    -0.10300
C3282       C  0.75137697  0.73429637  0.02817836    -0.11900
C3283       C  0.56261974  0.73139848  0.59868156    -0.10300
C3284       C  0.57560599  0.74436451  0.61537709    -0.11900
C3285       C  0.53152087  0.62311506  0.53840526    -0.10300
C3286       C  0.53404128  0.64821022  0.54330096    -0.11900
C3287       C  0.94388421  0.81046294  0.52036169    -0.10300
C3288       C  0.94578121  0.83525987  0.52521908    -0.11900
C3289       C  0.91548223  0.72704776  0.46549759    -0.10300
C3290       C  0.90145440  0.71362122  0.44921033    -0.11900
C3291       C  0.98504671  0.73708599  0.52609042    -0.10300
C3292       C  0.50009263  0.72710880  0.53518276    -0.11900
C3293       C  0.86386538  0.78938188  0.87340639    -0.10300
C3294       C  0.86593053  0.81414993  0.87871071    -0.11900
C3295       C  0.89404782  0.89786940  0.93386331    -0.10300
C3296       C  0.90804633  0.91160605  0.95015171    -0.11900
C3297       C  0.74731725  0.89224045  0.79894605    -0.10300
C3298       C  0.73348870  0.87895751  0.78253195    -0.11900
C3299       C  0.77835883  0.97749782  0.85297808    -0.10300
C3300       C  0.78091132  0.50250147  0.85809976    -0.11900
C3301       C  0.81460380  0.90061777  0.86089051    -0.10300
C3302       C  0.82934372  0.89082289  0.87062613    -0.11900
C3303       C  0.53103165  0.64127012  0.68849421    -0.10300
C3304       C  0.55325888  0.66661203  0.69343519    -0.11900
C3305       C  0.97670807  0.55748907  0.63328128    -0.10300
C3306       C  0.97687995  0.54469779  0.61651081    -0.11900
C3307       C  0.77934686  0.97888773  0.71204737    -0.10300
C3308       C  0.75671231  0.95401735  0.70683407    -0.11900
C3309       C  0.83316215  0.56562995  0.76526611    -0.10300
C3310       C  0.83269764  0.57914980  0.78159251    -0.11900
C3311       C  0.89340939  0.55357055  0.70578826    -0.10300
C3312       C  0.91824339  0.56281138  0.69654601    -0.11900
loop_ 
_geom_bond_atom_site_label_1 
_geom_bond_atom_site_label_2 
_geom_bond_distance 
_geom_bond_site_symmetry_2 
_ccdc_geom_bond_type 
C1            C2   1.400       .  A
C1            C6   1.403       .  A
C1         C1651   1.439   1_545  S
C2            C3   1.400       .  A
C2            H7   1.085       .  S
C3            C4   1.399       .  A
C3          C827   1.434       .  S
C4            C5   1.399       .  A
C4            H8   1.085       .  S
C5            C6   1.403       .  A
C5          C825   1.438       .  S
C6            H9   1.084       .  S
C10          C15   1.403       .  A
C10        C1667   1.400   1_455  A
C10         C819   1.441       .  S
C11          C12   1.400       .  A
C11        C1666   1.400       .  A
C11          H16   1.085       .  S
C12          C13   1.398       .  A
C12         C828   1.434       .  S
C13          C14   1.398       .  A
C13          H17   1.085       .  S
C14        C1671   1.403       .  A
C14         C821   1.438       .  S
C15        C1670   1.403   1_455  A
C15          H18   1.084       .  S
C19          C20   1.400       .  A
C19          C24   1.402       .  A
C19         C815   1.439       .  S
C20          C21   1.400       .  A
C20          H25   1.085       .  S
C21          C22   1.398       .  A
C21         C817   1.434       .  S
C22          C23   1.398       .  A
C22          H26   1.085       .  S
C23          C24   1.402       .  A
C23         C813   1.436       .  S
C24          H27   1.085       .  S
C28          C29   1.404       .  A
C28          C33   1.401       .  A
C28         C810   1.442       .  S
C29          C30   1.404       .  A
C29          H34   1.084       .  S
C30          C31   1.398       .  A
C30         C811   1.439       .  S
C31          C32   1.398       .  A
C31          H35   1.085       .  S
C32          C33   1.400       .  A
C32         C818   1.435       .  S
C33          H36   1.085       .  S
C37          C38   1.401       .  A
C37          C42   1.401       .  A
C37         C803   1.438       .  S
C38          C39   1.401       .  A
C38          H43   1.085       .  S
C39          C40   1.397       .  A
C39         C807   1.433       .  S
C40          C41   1.396       .  A
C40          H44   1.085       .  S
C41          C42   1.401       .  A
C41         C805   1.433       .  S
C42          H45   1.085       .  S
C46          C47   1.402       .  A
C46          C51   1.396       .  A
C46         C799   1.435       .  S
C47          C48   1.403       .  A
C47          H52   1.084       .  S
C48          C49   1.402       .  A
C48         C802   1.441       .  S
C49          C50   1.401       .  A
C49        H1709   1.085       .  S
C50          C51   1.396       .  A
C50         C808   1.433       .  S
C51          H54   1.085       .  S
H53        C1705   1.085       .  S
C55          C56   1.404   1_554  A
C55          C60   1.401       .  A
C55         C795   1.441       .  S
C56          C57   1.404       .  A
C56          H61   1.084       .  S
C57          C58   1.398       .  A
C57         C793   1.438       .  S
C58          C59   1.398   1_556  A
C58          H62   1.085       .  S
C59          C60   1.400       .  A
C59         C798   1.435       .  S
C60          H63   1.085       .  S
C64          C65   1.401       .  A
C64          C69   1.403       .  A
C64         C790   1.440       .  S
C65          C66   1.401       .  A
C65          H70   1.085       .  S
C66          C67   1.398       .  A
C66         C797   1.435       .  S
C67          C68   1.398       .  A
C67          H71   1.085       .  S
C68          C69   1.402       .  A
C68         C792   1.437       .  S
C69          H72   1.085       .  S
C73          C74   1.400       .  A
C73          C78   1.401       .  A
C73         C785   1.437       .  S
C74        C1731   1.400       .  A
C74          H79   1.085       .  S
C75          C76   1.397       .  A
C75        C1730   1.400       .  A
C75         C787   1.431       .  S
C76        C1733   1.397       .  A
C76          H80   1.085       .  S
C77          C78   1.400       .  A
C77        C1732   1.397       .  A
C77         C783   1.433       .  S
C78          H81   1.085       .  S
C82          C83   1.403       .  A
C82          C87   1.400       .  A
C82         C780   1.438       .  S
C83          C84   1.403       .  A
C83          H88   1.084       .  S
C84          C85   1.396       .  A
C84         C781   1.434       .  S
C85          C86   1.395       .  A
C85          H89   1.085       .  S
C86          C87   1.399       .  A
C86         C788   1.431       .  S
C87          H90   1.085       .  S
C91          C92   1.401       .  A
C91          C96   1.402       .  A
C91         C775   1.439       .  S
C92          C93   1.401       .  A
C92          H97   1.085       .  S
C93          C94   1.396       .  A
C93         C777   1.432       .  S
C94          C95   1.396       .  A
C94          H98   1.085       .  S
C95          C96   1.401       .  A
C95         C774   1.434       .  S
C96          H99   1.085       .  S
C100        C101   1.395       .  A
C100        C105   1.403       .  A
C100        C770   1.434       .  S
C101        C102   1.395       .  A
C101        H106   1.085       .  S
C102        C103   1.401       .  A
C102        C778   1.432       .  S
C103        C104   1.402       .  A
C103        H107   1.085       .  S
C104        C105   1.403       .  A
C104       C1600   1.442   1_545  S
C105        H108   1.084       .  S
C109        C110   1.400       .  A
C109        C114   1.401       .  A
C109       C2419   1.437   1_455  S
C110        C111   1.400       .  A
C110        H115   1.085       .  S
C111        C112   1.399       .  A
C111        C767   1.435       .  S
C112        C113   1.399       .  A
C112        H116   1.085       .  S
C113        C114   1.401       .  A
C113        C765   1.437       .  S
C114        H117   1.085       .  S
C118        C119   1.403       .  A
C118        C951   1.400       .  A
C118        C760   1.440   1_565  S
C119        C948   1.403       .  A
C119        H124   1.085   1_565  S
C120        C121   1.398       .  A
C120        C947   1.403       .  A
C120        C761   1.437       .  S
C121        C122   1.398       .  A
C121        H125   1.085       .  S
C122        C123   1.400       .  A
C122        C768   1.434       .  S
C123        C946   1.400       .  A
C123        H126   1.085       .  S
C127        C128   1.403       .  A
C127        C132   1.397       .  A
C127        C755   1.435       .  S
C128        C129   1.403       .  A
C128        H133   1.084       .  S
C129        C130   1.400       .  A
C129        C753   1.440       .  S
C130        C131   1.400       .  A
C130        H134   1.085       .  S
C131        C132   1.396       .  A
C131        C757   1.432       .  S
C132        H135   1.085       .  S
C136        C137   1.401       .  A
C136        C141   1.400       .  A
C136        C752   1.438       .  S
C137        C138   1.401       .  A
C137        H142   1.085       .  S
C138        C139   1.397       .  A
C138        C750   1.434       .  S
C139        C140   1.397       .  A
C139        H143   1.085       .  S
C140        C141   1.400       .  A
C140        C758   1.432       .  S
C141        H144   1.085       .  S
C145        C146   1.401       .  A
C145        C150   1.402       .  A
C145        C743   1.438       .  S
C146        C147   1.401       .  A
C146        H151   1.085       .  S
C147        C148   1.397       .  A
C147        C748   1.433       .  S
C148        C149   1.396       .  A
C148        H152   1.085       .  S
C149        C150   1.401       .  A
C149        C746   1.434       .  S
C150        H153   1.085       .  S
C154        C155   1.401       .  A
C154        C159   1.404       .  A
C154        C741   1.442       .  S
C155        C156   1.401       .  A
C155        H160   1.085       .  S
C156        C157   1.396       .  A
C156        C747   1.433       .  S
C157        C158   1.396       .  A
C157        H161   1.085       .  S
C158        C159   1.404       .  A
C158        C739   1.437       .  S
C159        H162   1.084       .  S
C163        C164   1.404   1_554  A
C163        C168   1.402       .  A
C163        C735   1.443       .  S
C164        C165   1.404       .  A
C164        H169   1.084       .  S
C165        C166   1.396       .  A
C165        C733   1.437       .  S
C166        C167   1.396   1_556  A
C166        H170   1.085       .  S
C167        C168   1.401       .  A
C167       C1566   1.433   1_545  S
C168        H999   1.085   1_545  S
H171        C996   1.085       .  S
C172        C173   1.401       .  A
C172        C177   1.402       .  A
C172        C730   1.439       .  S
C173        C174   1.401       .  A
C173        H178   1.085       .  S
C174        C175   1.396       .  A
C174        C732   1.432       .  S
C175        C176   1.396       .  A
C175        H179   1.085       .  S
C176        C177   1.402       .  A
C176        C737   1.433       .  S
C177        H180   1.084       .  S
C181        C182   1.400       .  A
C181        C186   1.400       .  A
C181        C726   1.436       .  S
C182        C183   1.400       .  A
C182        H187   1.085       .  S
C183        C184   1.397       .  A
C183        C727   1.432       .  S
C184        C185   1.397       .  A
C184        H188   1.085       .  S
C185        C186   1.400       .  A
C185        C724   1.432       .  S
C186        H189   1.085       .  S
C190        C191   1.403       .  A
C190        C195   1.400       .  A
C190       C2376   1.439   1_455  S
C191        C192   1.402       .  A
C191        H196   1.084       .  S
C192        C193   1.397       .  A
C192        C722   1.436       .  S
C193        C194   1.397       .  A
C193        H197   1.085       .  S
C194        C195   1.400       .  A
C194        C728   1.432       .  S
C195        H198   1.085       .  S
C199        C200   1.400       .  A
C199        C204   1.404       .  A
C199        C715   1.442       .  S
C200        C201   1.400       .  A
C200        H205   1.085       .  S
C201        C202   1.397       .  A
C201        C717   1.432       .  S
C202        C203   1.397       .  A
C202        H206   1.085       .  S
C203        C204   1.404       .  A
C203        C714   1.437       .  S
C204        H207   1.084       .  S
C208        C209   1.400       .  A
C208        C213   1.402       .  A
C208        C711   1.439       .  S
C209       C1038   1.400       .  A
C209        H214   1.085       .  S
C210        C211   1.397       .  A
C210       C1037   1.400   1_545  A
C210        C718   1.432       .  S
C211       C1040   1.397   1_545  A
C211        H215   1.085       .  S
C212        C213   1.402       .  A
C212       C1039   1.397       .  A
C212        C710   1.434       .  S
C213        H216   1.085       .  S
C217        C218   1.397       .  A
C217        C222   1.404       .  A
C217        C705   1.438       .  S
C218        C219   1.397       .  A
C218        H223   1.085       .  S
C219        C220   1.400       .  A
C219        C708   1.433       .  S
C220        C221   1.401       .  A
C220        H224   1.085       .  S
C221        C222   1.405       .  A
C221        C703   1.443       .  S
C222        H225   1.084       .  S
C226        C231   1.400       .  A
C226       C1055   1.402       .  A
C226       C1527   1.438       .  S
C227       C1054   1.402       .  A
C227       C1056   1.401       .  A
C227        H232   1.085   1_565  S
C228        C229   1.397       .  A
C228       C1055   1.401       .  A
C228        C702   1.434       .  S
C229        C230   1.397       .  A
C229        H233   1.085       .  S
C230        C231   1.400       .  A
C230        C707   1.433       .  S
C231        H234   1.085       .  S
C235        C236   1.399       .  A
C235        C240   1.402       .  A
C235        C696   1.438       .  S
C236        C237   1.399       .  A
C236        H241   1.085       .  S
C237        C238   1.400       .  A
C237        C698   1.435       .  S
C238        C239   1.400       .  A
C238        H242   1.085       .  S
C239        C240   1.402       .  A
C239        C694   1.438       .  S
C240        H243   1.085       .  S
C244        C245   1.401       .  A
C244        C249   1.403       .  A
C244        C689   1.441       .  S
C245       C1074   1.400       .  A
C245        H250   1.085       .  S
C246        C247   1.398       .  A
C246       C1073   1.400   1_545  A
C246        C697   1.435       .  S
C247       C1076   1.398   1_545  A
C247        H251   1.085       .  S
C248        C249   1.403       .  A
C248       C1075   1.398       .  A
C248        C692   1.438       .  S
C249        H252   1.084       .  S
C253        C254   1.401       .  A
C253        C258   1.402       .  A
C253        C685   1.439       .  S
C254        C255   1.401       .  A
C254       H1087   1.085   1_545  S
C255        C256   1.399       .  A
C255       C1516   1.436   1_545  S
C256        C257   1.398       .  A
C256        H260   1.085       .  S
C257        C258   1.402       .  A
C257        C683   1.437       .  S
C258        H261   1.085       .  S
H259       C1082   1.085       .  S
C262        C263   1.401       .  A
C262        C267   1.404       .  A
C262        C681   1.442       .  S
C263        C264   1.401       .  A
C263        H268   1.085       .  S
C264        C265   1.398       .  A
C264        C687   1.436       .  S
C265        C266   1.398       .  A
C265        H269   1.085       .  S
C266        C267   1.404       .  A
C266        C679   1.439       .  S
C267        H270   1.084       .  S
C271        C272   1.403       .  A
C271        C276   1.401       .  A
C271        C676   1.440       .  S
C272        C273   1.403       .  A
C272        H277   1.084       .  S
C273        C274   1.397       .  A
C273        C673   1.437       .  S
C274        C275   1.397       .  A
C274        H278   1.085       .  S
C275        C276   1.400       .  A
C275        C677   1.434       .  S
C276        H279   1.085       .  S
C280        C285   1.401       .  A
C280       C1937   1.401   1_455  A
C280        C670   1.437       .  S
C281        C282   1.401       .  A
C281       C1936   1.401       .  A
C281        H286   1.085       .  S
C282        C283   1.398       .  A
C282        C678   1.434       .  S
C283        C284   1.398       .  A
C283        H287   1.085       .  S
C284       C1941   1.400       .  A
C284        C671   1.435       .  S
C285       C1940   1.400   1_455  A
C285        H288   1.085       .  S
C289        C290   1.402       .  A
C289        C294   1.404   1_554  A
C289        C663   1.443       .  S
C290        C291   1.402       .  A
C290        H295   1.085       .  S
C291        C292   1.398   1_554  A
C291        C668   1.436       .  S
C292        C293   1.398       .  A
C292        H296   1.085       .  S
C293        C294   1.404       .  A
C293        C665   1.440       .  S
C294        H297   1.084       .  S
C298        C299   1.402       .  A
C298        C303   1.403       .  A
C298        C662   1.440       .  S
C299        C300   1.402       .  A
C299        H304   1.085       .  S
C300        C301   1.398       .  A
C300       C2323   1.436   1_455  S
C301        C302   1.398       .  A
C301        H305   1.085       .  S
C302        C303   1.402       .  A
C302        C659   1.437       .  S
C303        H306   1.085       .  S
C307        C308   1.399       .  A
C307        C312   1.403       .  A
C307        C656   1.439       .  S
C308        C309   1.399       .  A
C308        H313   1.085       .  S
C309        C310   1.398       .  A
C309        C657   1.432       .  S
C310        C311   1.398       .  A
C310        H314   1.085       .  S
C311        C312   1.403       .  A
C311        C653   1.438       .  S
C312        H315   1.084       .  S
C316        C321   1.403       .  A
C316       C1973   1.398       .  A
C316        C650   1.437       .  S
C317        C318   1.398       .  A
C317       C1972   1.398   1_455  A
C317        H322   1.085       .  S
C318       C1975   1.399       .  A
C318        C658   1.432       .  S
C319        C320   1.399       .  A
C319       C1974   1.399       .  A
C319        H323   1.085       .  S
C320        C321   1.404       .  A
C320        C651   1.439       .  S
C321        H324   1.084       .  S
O325        C336   1.291       .  A
O325       Eu361   2.468       .  S
O326        C337   1.288       .  A
O326       Eu360   2.450       .  S
O327        C338   1.287       .  A
O327       Eu333   2.446       .  S
O328        C339   1.290       .  A
O328       Eu333   2.461       .  S
O329        C339   1.288       .  A
O329       Eu363   2.452       .  S
O330        C338   1.291       .  A
O330       Eu362   2.466       .  S
O331        C337   1.291       .  A
O331       Eu333   2.469       .  S
O332        C336   1.288       .  A
O332       Eu333   2.448       .  S
Eu333       O343   2.354       .  S
Eu333       O335   2.356       .  S
Eu333       O334   2.344       .  S
Eu333       O341   2.354       .  S
O334       Eu363   2.353       .  S
O334       Eu360   2.348       .  S
O335       Eu361   2.347       .  S
O335       Eu362   2.349       .  S
C336        C826   1.433       .  S
C337        C759   1.434       .  S
C338        C816   1.433       .  S
C339        C695   1.433       .  S
H340        O341   0.965       .  S
O341       Eu362   2.345       .  S
O341       Eu360   2.362       .  S
H342        O343   0.966       .  S
O343       Eu361   2.355       .  S
O343       Eu363   2.353       .  S
O344        C367   1.292       .  A
O344       Eu360   2.473       .  S
O345        C368   1.288       .  A
O345       Eu361   2.452       .  S
O346        C369   1.292       .  A
O346       Eu362   2.470       .  S
O347        C370   1.287       .  A
O347       Eu363   2.446       .  S
O348        C371   1.290       .  A
O348       Eu363   2.460       .  S
O349        C372   1.288       .  A
O349       Eu362   2.448       .  S
O350        C373   1.293       .  A
O350       Eu364   2.474       .  S
O351        C374   1.289       .  A
O351       Eu364   2.456       .  S
O352        C373   1.287       .  A
O352       Eu362   2.443       .  S
O353        C374   1.291       .  A
O353       Eu363   2.469       .  S
O354        C369   1.286       .  A
O354       Eu360   2.439       .  S
O355        C372   1.292       .  A
O355       Eu361   2.470       .  S
O356        C371   1.287       .  A
O356       Eu361   2.446       .  S
O357        C370   1.291       .  A
O357       Eu360   2.464       .  S
O358        C367   1.287       .  A
O358       Eu364   2.441       .  S
O359        C368   1.290       .  A
O359       Eu364   2.458       .  S
Eu360       O378   2.344       .  S
Eu360       O366   2.350       .  S
Eu361       O365   2.357       .  S
Eu361       O376   2.354       .  S
Eu362       O376   2.361       .  S
Eu362       O366   2.350       .  S
Eu363       O365   2.348       .  S
Eu363       O378   2.353       .  S
Eu364       O365   2.351       .  S
Eu364       O376   2.347       .  S
Eu364       O378   2.360       .  S
Eu364       O366   2.349       .  S
C367        C794   1.433       .  S
C368        C764   1.432       .  S
C369        C734   1.431       .  S
C370        C655   1.433       .  S
C371        C749   1.429       .  S
C372        C652   1.433       .  S
C373        C666   1.434       .  S
C374        C809   1.436       .  S
H375        O376   0.965       .  S
H377        O378   0.965       .  S
O379        C390   1.292       .  A
O379       Eu415   2.471   1_556  S
O380        C391   1.289       .  A
O380       Eu414   2.456       .  S
O381        C392   1.291       .  A
O381      Eu2043   2.466   1_456  S
O382        C393   1.288       .  A
O382       Eu387   2.452       .  S
O383        C393   1.292       .  A
O383       Eu417   2.470       .  S
O384        C392   1.287       .  A
O384      Eu1244   2.441   1_556  S
O385       C2047   1.290       .  A
O385       Eu387   2.460       .  S
O386        C390   1.287       .  A
O386       Eu387   2.445   1_556  S
Eu387      O2037   2.466   1_554  S
Eu387       O397   2.358       .  S
Eu387       O389   2.352   1_554  S
Eu387       O388   2.351       .  S
Eu387      O2051   2.347       .  S
O388       Eu417   2.350       .  S
O388      Eu2070   2.359       .  S
O389       Eu415   2.352   1_556  S
O389      Eu2900   2.353   1_556  S
C390        C812   1.434       .  S
C391        C661   1.435       .  S
C391       O2041   1.290       .  A
C392        C762   1.431       .  S
C393        C796   1.435       .  S
H394        O395   0.965       .  S
O395       Eu414   2.350       .  S
O395      Eu2043   2.347   1_455  S
O395      Eu1244   2.358       .  S
H396        O397   0.965       .  S
O397       Eu415   2.347       .  S
O397       Eu417   2.349       .  S
O398        C421   1.291       .  A
O398      Eu1242   2.464   1_545  S
O399        C422   1.289       .  A
O399      Eu1243   2.458   1_545  S
O400        C423   1.289       .  A
O400       Eu416   2.457       .  S
O401        C424   1.290       .  A
O401       Eu417   2.461       .  S
O402        C425   1.289       .  A
O402       Eu417   2.456       .  S
O403        C426   1.292   1_455  A
O403       Eu416   2.469   1_556  S
O404        C427   1.288       .  A
O404       Eu418   2.453   1_455  S
O405       C1256   1.291   1_545  A
O405      Eu2074   2.463       .  S
O406        C427   1.290       .  A
O406       Eu416   2.462       .  S
O407        C428   1.287       .  A
O407       Eu417   2.443       .  S
O408       C1251   1.292       .  A
O408       Eu414   2.470       .  S
O409       C2082   1.286       .  A
O409      Eu1243   2.440   1_546  S
O410        C425   1.289       .  A
O410       Eu415   2.457       .  S
O411       C2080   1.288   1_455  A
O411       Eu414   2.449       .  S
O412        C421   1.287       .  A
O412       Eu418   2.442   1_455  S
O413        C422   1.291       .  A
O413      Eu2074   2.468       .  S
Eu414      O1226   2.464       .  S
Eu414      O2044   2.359   1_455  S
Eu414      O2088   2.355   1_455  S
Eu414      O1248   2.349       .  S
Eu415      O1227   2.458       .  S
Eu415      O1237   2.440   1_554  S
Eu415       O419   2.349       .  S
Eu415      O2914   2.360       .  S
Eu416      O1212   2.441   1_544  S
Eu416       O430   2.347   1_455  S
Eu416       O420   2.349       .  S
Eu416      O2873   2.353   1_444  S
Eu416      O1223   2.358   1_545  S
Eu417       O419   2.355       .  S
Eu417       O432   2.355       .  S
Eu418      O2061   2.463       .  S
Eu418      O2069   2.468       .  S
Eu418       O430   2.350       .  S
Eu418       O420   2.356   1_655  S
Eu418      O2903   2.347   1_545  S
Eu418      O2916   2.355   1_545  S
O419      Eu2902   2.347       .  S
O420      Eu1242   2.349   1_545  S
C421        C773   1.429       .  S
C422        C664   1.438       .  S
C423        C736   1.437       .  S
C423       O1236   1.292   1_545  A
C424        C672   1.430       .  S
C424       O2067   1.288       .  A
C425        C729   1.433       .  S
C426        C649   1.432       .  S
C426       O2065   1.286       .  A
C427        C789   1.435       .  S
C428        C709   1.429       .  S
C428       O1233   1.291       .  A
H429        O430   0.965   1_455  S
O430      Eu2899   2.360   1_545  S
H431        O432   0.966       .  S
O432      Eu2070   2.355       .  S
O432      Eu2902   2.355       .  S
O433        C444   1.290       .  A
O433       Eu469   2.461       .  S
O434        C445   1.288       .  A
O434       Eu468   2.454       .  S
O435        C446   1.289       .  A
O435       Eu441   2.454       .  S
O436        C447   1.292       .  A
O436       Eu441   2.469       .  S
O437        C447   1.286       .  A
O437       Eu471   2.439       .  S
O438        C446   1.289       .  A
O438       Eu470   2.456       .  S
O439        C445   1.292       .  A
O439       Eu441   2.474       .  S
O440        C444   1.287       .  A
O440       Eu441   2.442       .  S
Eu441       O451   2.357       .  S
Eu441       O443   2.356       .  S
Eu441       O442   2.346       .  S
Eu441       O449   2.353       .  S
O442       Eu471   2.358       .  S
O442       Eu468   2.347       .  S
O443       Eu469   2.346       .  S
O443       Eu470   2.348       .  S
C444        C806   1.428       .  S
C445        C704   1.438       .  S
C446        C786   1.432       .  S
C447        C745   1.429       .  S
H448        O449   0.965       .  S
O449       Eu470   2.349       .  S
O449       Eu468   2.359       .  S
H450        O451   0.966       .  S
O451       Eu469   2.353       .  S
O451       Eu471   2.355       .  S
O452        C475   1.291       .  A
O452       Eu468   2.465       .  S
O453        C476   1.288       .  A
O453       Eu469   2.449       .  S
O454        C477   1.292       .  A
O454       Eu470   2.469       .  S
O455        C478   1.288       .  A
O455       Eu471   2.453       .  S
O456        C479   1.291       .  A
O456       Eu471   2.467       .  S
O457        C480   1.288       .  A
O457       Eu470   2.453       .  S
O458        C481   1.292       .  A
O458       Eu472   2.469       .  S
O459        C482   1.287       .  A
O459       Eu472   2.447       .  S
O460        C481   1.286       .  A
O460       Eu470   2.439       .  S
O461        C482   1.291       .  A
O461       Eu471   2.469       .  S
O462        C477   1.286       .  A
O462       Eu468   2.437       .  S
O463        C480   1.291       .  A
O463       Eu469   2.464       .  S
O464        C479   1.287       .  A
O464       Eu469   2.446       .  S
O465        C478   1.289       .  A
O465       Eu468   2.454       .  S
O466        C475   1.285       .  A
O466       Eu472   2.434       .  S
O467        C476   1.290       .  A
O467       Eu472   2.459       .  S
Eu468       O486   2.348       .  S
Eu468       O474   2.347       .  S
Eu469       O473   2.353       .  S
Eu469       O484   2.352       .  S
Eu470       O484   2.360       .  S
Eu470       O474   2.345       .  S
Eu471       O473   2.344       .  S
Eu471       O486   2.350       .  S
Eu472       O473   2.347       .  S
Eu472       O484   2.343       .  S
Eu472       O486   2.361       .  S
Eu472       O474   2.346       .  S
C475        C769   1.428       .  S
C476        C700   1.432       .  S
C477        C674   1.431       .  S
C478        C725   1.431       .  S
C479        C684   1.432       .  S
C480        C719   1.433       .  S
C481        C713   1.431       .  S
C482        C779   1.433       .  S
H483        O484   0.966       .  S
H485        O486   0.965       .  S
O487        C498   1.287       .  A
O487       Eu523   2.446       .  S
O488        C499   1.292       .  A
O488       Eu522   2.473       .  S
O489        C500   1.288       .  A
O489       Eu495   2.450       .  S
O490        C501   1.292       .  A
O490       Eu495   2.470       .  S
O491        C501   1.287       .  A
O491       Eu525   2.443       .  S
O492        C500   1.292       .  A
O492       Eu524   2.470       .  S
O493        C499   1.286       .  A
O493       Eu495   2.439       .  S
O494        C498   1.291       .  A
O494       Eu495   2.465       .  S
Eu495       O505   2.346       .  S
Eu495       O497   2.347       .  S
Eu495       O496   2.351       .  S
Eu495       O503   2.360       .  S
O496       Eu525   2.350       .  S
O496       Eu522   2.351       .  S
O497       Eu523   2.356       .  S
O497       Eu524   2.345       .  S
C498        C824   1.434       .  S
C499        C740   1.432       .  S
C500        C754   1.434       .  S
C501        C680   1.434       .  S
H502        O503   0.965       .  S
O503       Eu524   2.350       .  S
O503       Eu522   2.345       .  S
H504        O505   0.965       .  S
O505       Eu523   2.353       .  S
O505       Eu525   2.359       .  S
O506        C529   1.288       .  A
O506       Eu522   2.453       .  S
O507        C530   1.290       .  A
O507       Eu523   2.463       .  S
O508        C531   1.288       .  A
O508       Eu524   2.449       .  S
O509        C532   1.291       .  A
O509       Eu525   2.466       .  S
O510        C533   1.288       .  A
O510       Eu525   2.453       .  S
O511        C534   1.291       .  A
O511       Eu524   2.464       .  S
O512        C535   1.291       .  A
O512       Eu526   2.467       .  S
O513        C536   1.288       .  A
O513       Eu526   2.449       .  S
O514        C535   1.287       .  A
O514       Eu524   2.445       .  S
O515        C536   1.290       .  A
O515       Eu525   2.460       .  S
O516        C531   1.290       .  A
O516       Eu522   2.461       .  S
O517        C534   1.287       .  A
O517       Eu523   2.444       .  S
O518        C533   1.292       .  A
O518       Eu523   2.471       .  S
O519        C532   1.286       .  A
O519       Eu522   2.439       .  S
O520        C529   1.292       .  A
O520       Eu526   2.470       .  S
O521        C530   1.288       .  A
O521       Eu526   2.449       .  S
Eu522       O540   2.361       .  S
Eu522       O528   2.348       .  S
Eu523       O527   2.344       .  S
Eu523       O538   2.354       .  S
Eu524       O538   2.354       .  S
Eu524       O528   2.355       .  S
Eu525       O527   2.349       .  S
Eu525       O540   2.348       .  S
Eu526       O527   2.357       .  S
Eu526       O538   2.353       .  S
Eu526       O540   2.354       .  S
Eu526       O528   2.346       .  S
C529        C820   1.435       .  S
C530        C766   1.432       .  S
C531        C693   1.433       .  S
C532        C800   1.429       .  S
C533        C690   1.436       .  S
C534        C814   1.431       .  S
C535        C654   1.432       .  S
C536        C751   1.432       .  S
H537        O538   0.966       .  S
H539        O540   0.965       .  S
O541        C552   1.291       .  A
O541       Eu577   2.467       .  S
O542        C553   1.288       .  A
O542       Eu576   2.452       .  S
O543        C554   1.289       .  A
O543       Eu549   2.455       .  S
O544        C555   1.291       .  A
O544       Eu549   2.467       .  S
O545        C555   1.287       .  A
O545       Eu579   2.446       .  S
O546        C554   1.290       .  A
O546       Eu578   2.460       .  S
O547        C553   1.292       .  A
O547       Eu549   2.473       .  S
O548        C552   1.287       .  A
O548       Eu549   2.445       .  S
Eu549       O559   2.356       .  S
Eu549       O551   2.357       .  S
Eu549       O550   2.348       .  S
Eu549       O557   2.352       .  S
O550       Eu579   2.357       .  S
O550       Eu576   2.350       .  S
O551       Eu577   2.346       .  S
O551       Eu578   2.348       .  S
C552        C791   1.432       .  S
C553        C716   1.436       .  S
C554        C776   1.434       .  S
C555        C660   1.432       .  S
H556        O557   0.965       .  S
O557       Eu578   2.346       .  S
O557       Eu576   2.359       .  S
H558        O559   0.966       .  S
O559       Eu577   2.354       .  S
O559       Eu579   2.357       .  S
O560        C583   1.292       .  A
O560       Eu576   2.469       .  S
O561        C584   1.288       .  A
O561       Eu577   2.450       .  S
O562        C585   1.291       .  A
O562       Eu578   2.466       .  S
O563        C586   1.289       .  A
O563       Eu579   2.454       .  S
O564        C587   1.290       .  A
O564       Eu579   2.462       .  S
O565        C588   1.288       .  A
O565       Eu578   2.451       .  S
O566        C589   1.292       .  A
O566       Eu580   2.470       .  S
O567        C590   1.289       .  A
O567       Eu580   2.457       .  S
O568        C589   1.286       .  A
O568       Eu578   2.439       .  S
O569        C590   1.291       .  A
O569       Eu579   2.470       .  S
O570        C585   1.286       .  A
O570       Eu576   2.439       .  S
O571        C588   1.291       .  A
O571       Eu577   2.467       .  S
O572        C587   1.286       .  A
O572       Eu577   2.439       .  S
O573        C586   1.289       .  A
O573       Eu576   2.456       .  S
O574        C583   1.285       .  A
O574       Eu580   2.431       .  S
O575        C584   1.290       .  A
O575       Eu580   2.462       .  S
Eu576       O594   2.348       .  S
Eu576       O582   2.346       .  S
Eu577       O581   2.355       .  S
Eu577       O592   2.351       .  S
Eu578       O592   2.361       .  S
Eu578       O582   2.346       .  S
Eu579       O581   2.346       .  S
Eu579       O594   2.351       .  S
Eu580       O581   2.345       .  S
Eu580       O592   2.347       .  S
Eu580       O594   2.362       .  S
Eu580       O582   2.348       .  S
C583        C782   1.428       .  S
C584        C712   1.433       .  S
C585        C721   1.430       .  S
C586        C669   1.432       .  S
C587        C731   1.427       .  S
C588        C675   1.434       .  S
C589        C706   1.433       .  S
C590        C771   1.437       .  S
H591        O592   0.966       .  S
H593        O594   0.965       .  S
O595        C606   1.292       .  A
O595      Eu1459   2.468   1_545  S
O596        C607   1.288       .  A
O596      Eu1458   2.452   1_545  S
O597       C1436   1.291   1_545  A
O597       Eu603   2.468       .  S
O598        C609   1.289       .  A
O598       Eu603   2.458       .  S
O599        C609   1.291       .  A
O599      Eu2289   2.465   1_455  S
O600        C608   1.287       .  A
O600      Eu2288   2.442   1_455  S
O601        C607   1.290       .  A
O601       Eu603   2.458       .  S
O602       C2262   1.287   1_455  A
O602       Eu603   2.443       .  S
Eu603       O604   2.349       .  S
Eu603      O2269   2.358   1_455  S
Eu603      O3089   2.351   1_445  S
Eu603      O1439   2.348   1_545  S
O604      Eu2289   2.348   1_455  S
O604      Eu1458   2.358   1_545  S
O605       Eu631   2.351       .  S
O605       Eu632   2.352       .  S
O605      Eu3087   2.351       .  S
C606        C822   1.433       .  S
C606       O2258   1.287       .  A
C607        C744   1.433       .  S
C608        C691   1.432       .  S
C608       O1425   1.291       .  A
C609        C801   1.436       .  S
H610       O1439   0.965       .  S
O611       Eu630   2.347       .  S
O611      Eu1431   2.348       .  S
O611      Eu2288   2.355   1_455  S
O611       H1438   0.965       .  S
H612        O613   0.965       .  S
O613       Eu633   2.348       .  S
O613      Eu2259   2.358       .  S
O613      Eu1459   2.345   1_545  S
O614        C637   1.290   1_455  A
O614       Eu630   2.460       .  S
O615        C638   1.289       .  A
O615       Eu631   2.455       .  S
O616        C639   1.288       .  A
O616      Eu2288   2.454   1_455  S
O617        C640   1.290       .  A
O617      Eu2289   2.459   1_455  S
O618        C641   1.289       .  A
O618       Eu633   2.454       .  S
O619        C642   1.291       .  A
O619       Eu632   2.463       .  S
O620        C643   1.289       .  A
O620       Eu634   2.452       .  S
O621        C644   1.291       .  A
O621       Eu634   2.465       .  S
O622        C643   1.289       .  A
O622       Eu632   2.458       .  S
O623        C644   1.287       .  A
O623      Eu1461   2.441       .  S
O624        C639   1.291       .  A
O624       Eu630   2.470       .  S
O625        C642   1.286       .  A
O625       Eu631   2.438       .  S
O626       C1469   1.290       .  A
O626       Eu631   2.459       .  S
O627        C640   1.287       .  A
O627      Eu1458   2.442   1_545  S
O628       C2293   1.287       .  A
O628       Eu634   2.445       .  S
O629        C638   1.292       .  A
O629       Eu634   2.470       .  S
Eu630      O1424   2.452       .  S
Eu630      O1455   2.442       .  S
Eu630      O1432   2.358       .  S
Eu630      O2304   2.355   1_455  S
Eu630      O2292   2.347   1_455  S
Eu631      O1423   2.468       .  S
Eu631       O635   2.349       .  S
Eu631       O646   2.358       .  S
Eu631      O1441   2.345       .  S
Eu632      O2256   2.442       .  S
Eu632      O2272   2.454       .  S
Eu632       O646   2.347       .  S
Eu632       O636   2.349       .  S
Eu632      O2267   2.355       .  S
Eu633      O2255   2.465       .  S
Eu633      O2273   2.459       .  S
Eu633      O1451   2.441   1_545  S
Eu633      O2260   2.348       .  S
Eu633      O1463   2.355   1_545  S
Eu633      O1476   2.355   1_545  S
Eu634       O635   2.347       .  S
Eu634       O646   2.350       .  S
Eu634       O648   2.354       .  S
Eu634       O636   2.358       .  S
O635      Eu1461   2.355       .  S
O636      Eu2286   2.347       .  S
C637       C2440   1.428       .  S
C637       O2284   1.287       .  A
C638        C742   1.436       .  S
C639        C682   1.437       .  S
C640        C723   1.427       .  S
C641        C686   1.434       .  S
C641       O1454   1.290   1_545  A
C642        C756   1.429       .  S
C643        C804   1.432       .  S
C644        C701   1.429       .  S
H645        O646   0.965       .  S
H647        O648   0.966       .  S
O648      Eu2286   2.355       .  S
O648      Eu1461   2.355       .  S
C649       C2306   1.204       .  T
C650       C2305   1.204       .  T
C651        C652   1.205       .  T
C653        C654   1.204       .  T
C655        C656   1.205       .  T
C657        C658   1.201       .  T
C659        C660   1.204       .  T
C661        C662   1.206       .  T
C663        C664   1.208       .  T
C665        C666   1.206       .  T
C667       C1956   1.436       .  S
C667        C668   1.204       .  T
C669        C670   1.204       .  T
C671        C672   1.203       .  T
C673        C674   1.204       .  T
C675        C676   1.206       .  T
C677        C678   1.202       .  T
C679        C680   1.205       .  T
C681        C682   1.207       .  T
C683        C684   1.204       .  T
C685        C686   1.205       .  T
C687        C688   1.203       .  T
C688       C1083   1.436       .  S
C689        C690   1.207       .  T
C691        C692   1.205       .  T
C693        C694   1.205       .  T
C695        C696   1.205       .  T
C697        C698   1.203       .  T
C699       C1054   1.438   1_545  S
C699        C700   1.205       .  T
C701        C702   1.202       .  T
C703        C704   1.208       .  T
C705        C706   1.205       .  T
C707        C708   1.202       .  T
C709        C710   1.203       .  T
C711        C712   1.205       .  T
C713        C714   1.204       .  T
C715       C2372   1.207       .  T
C716       C2371   1.207   1_455  T
C717        C718   1.201       .  T
C719        C720   1.205       .  T
C720       C1846   1.439       .  S
C721        C722   1.203       .  T
C723        C724   1.201       .  T
C725        C726   1.204       .  T
C727        C728   1.201       .  T
C729        C730   1.205       .  T
C731        C732   1.201       .  T
C733        C734   1.204       .  T
C735        C736   1.208       .  T
C737        C738   1.202       .  T
C738        C995   1.433       .  S
C739        C740   1.204       .  T
C741        C742   1.207       .  T
C743        C744   1.205       .  T
C745        C746   1.203       .  T
C747        C748   1.202       .  T
C749        C750   1.203       .  T
C751       C2408   1.205   1_455  T
C752       C2407   1.205       .  T
C753        C754   1.206       .  T
C755        C756   1.203       .  T
C757        C758   1.201       .  T
C759        C760   1.206       .  T
C761        C762   1.204       .  T
C763       C1765   1.437       .  S
C763        C764   1.204       .  T
C765        C766   1.204       .  T
C767        C768   1.203       .  T
C769        C770   1.202       .  T
C771        C772   1.207       .  T
C772        C932   1.442       .  S
C773        C774   1.202       .  T
C775        C776   1.205       .  T
C777        C778   1.201       .  T
C779       C1608   1.205   1_545  T
C780       C1607   1.205       .  T
C781        C782   1.202       .  T
C783        C784   1.202       .  T
C784       C2293   1.428       .  S
C785        C786   1.204       .  T
C787        C788   1.201       .  T
C789        C790   1.206       .  T
C791        C792   1.204       .  T
C793        C794   1.205       .  T
C795        C796   1.207       .  T
C797        C798   1.203       .  T
C799        C800   1.203       .  T
C801        C802   1.207       .  T
C803        C804   1.205       .  T
C805        C806   1.202       .  T
C807       C2464   1.202       .  T
C808       C2463   1.202   1_455  T
C809        C810   1.207       .  T
C811        C812   1.206       .  T
C813        C814   1.204       .  T
C815       C1644   1.205       .  T
C816       C1643   1.205   1_545  T
C817        C818   1.203       .  T
C819        C820   1.206       .  T
C821        C822   1.205       .  T
C823        C829   1.439       .  S
C823        C824   1.206       .  T
C825        C826   1.205       .  T
C827        C828   1.203       .  T
C829        C830   1.400       .  A
C829        C834   1.403       .  A
C830        C831   1.400       .  A
C830        H835   1.085       .  S
C831        C832   1.399       .  A
C831       C1655   1.434       .  S
C832        C833   1.399       .  A
C832        H836   1.085       .  S
C833        C834   1.403       .  A
C833       C1653   1.438       .  S
C834        H837   1.084       .  S
C838       C2495   1.400   1_455  A
C838        C843   1.403       .  A
C838       C1647   1.441       .  S
C839       C2494   1.400       .  A
C839        C840   1.400       .  A
C839        H844   1.085       .  S
C840        C841   1.398       .  A
C840       C1656   1.434       .  S
C841        C842   1.398       .  A
C841        H845   1.085       .  S
C842       C2499   1.403       .  A
C842       C1649   1.438       .  S
C843       C2498   1.403   1_455  A
C843        H846   1.084       .  S
C847        C848   1.400       .  A
C847        C852   1.402       .  A
C847       C1643   1.439       .  S
C848        C849   1.400       .  A
C848        H853   1.085       .  S
C849        C850   1.398       .  A
C849       C1645   1.434       .  S
C850        C851   1.398       .  A
C850        H854   1.085       .  S
C851        C852   1.402       .  A
C851       C1641   1.436       .  S
C852        H855   1.085       .  S
C856        C857   1.404       .  A
C856        C861   1.401       .  A
C856       C1638   1.442       .  S
C857        C858   1.404       .  A
C857        H862   1.084       .  S
C858        C859   1.398       .  A
C858       C1639   1.439       .  S
C859        C860   1.398       .  A
C859        H863   1.085       .  S
C860        C861   1.400       .  A
C860       C1646   1.435       .  S
C861        H864   1.085       .  S
C865        C866   1.401       .  A
C865        C870   1.401       .  A
C865       C1631   1.438       .  S
C866        C867   1.401       .  A
C866        H871   1.085       .  S
C867        C868   1.397       .  A
C867       C1635   1.433       .  S
C868        C869   1.396       .  A
C868        H872   1.085       .  S
C869        C870   1.401       .  A
C869       C1633   1.433       .  S
C870        H873   1.085       .  S
C874        C875   1.402       .  A
C874        C879   1.396       .  A
C874       C1627   1.435       .  S
C875        C876   1.403       .  A
C875        H880   1.084       .  S
C876        C877   1.402       .  A
C876       C1630   1.441       .  S
C877        C878   1.401       .  A
C877       H2537   1.085       .  S
C878        C879   1.396       .  A
C878       C1636   1.433       .  S
C879        H882   1.085       .  S
H881       C2533   1.085       .  S
C883        C884   1.404   1_554  A
C883        C888   1.401       .  A
C883       C1623   1.441       .  S
C884        C885   1.404       .  A
C884        H889   1.084       .  S
C885        C886   1.398       .  A
C885       C1621   1.438       .  S
C886        C887   1.398   1_556  A
C886        H890   1.085       .  S
C887        C888   1.400       .  A
C887       C1626   1.435       .  S
C888        H891   1.085       .  S
C892        C893   1.401       .  A
C892        C897   1.403       .  A
C892       C1618   1.440       .  S
C893        C894   1.401       .  A
C893        H898   1.085       .  S
C894        C895   1.398       .  A
C894       C1625   1.435       .  S
C895        C896   1.398       .  A
C895        H899   1.085       .  S
C896        C897   1.402       .  A
C896       C1620   1.437       .  S
C897        H900   1.085       .  S
C901        C902   1.400       .  A
C901        C906   1.401       .  A
C901       C1613   1.437       .  S
C902       C2559   1.400       .  A
C902        H907   1.085       .  S
C903       C2558   1.400       .  A
C903        C904   1.397       .  A
C903       C1615   1.431       .  S
C904       C2561   1.397       .  A
C904        H908   1.085       .  S
C905       C2560   1.397       .  A
C905        C906   1.400       .  A
C905       C1611   1.433       .  S
C906        H909   1.085       .  S
C910        C911   1.403       .  A
C910        C915   1.400       .  A
C910       C1608   1.438       .  S
C911        C912   1.403       .  A
C911        H916   1.084       .  S
C912        C913   1.396       .  A
C912       C1609   1.434       .  S
C913        C914   1.395       .  A
C913        H917   1.085       .  S
C914        C915   1.399       .  A
C914       C1616   1.431       .  S
C915        H918   1.085       .  S
C919        C920   1.401       .  A
C919        C924   1.402       .  A
C919       C1603   1.439       .  S
C920        C921   1.401       .  A
C920        H925   1.085       .  S
C921        C922   1.396       .  A
C921       C1605   1.432       .  S
C922        C923   1.396       .  A
C922        H926   1.085       .  S
C923        C924   1.401       .  A
C923       C1602   1.434       .  S
C924        H927   1.085       .  S
C928        C929   1.395       .  A
C928        C933   1.403       .  A
C928       C1598   1.434       .  S
C929        C930   1.395       .  A
C929        H934   1.085       .  S
C930        C931   1.401       .  A
C930       C1606   1.432       .  S
C931        C932   1.402       .  A
C931        H935   1.085       .  S
C932        C933   1.403       .  A
C933        H936   1.084       .  S
C937        C938   1.400       .  A
C937        C942   1.401       .  A
C937       C3247   1.437   1_455  S
C938        C939   1.400       .  A
C938        H943   1.085       .  S
C939        C940   1.399       .  A
C939       C1595   1.435       .  S
C940        C941   1.399       .  A
C940        H944   1.085       .  S
C941        C942   1.401       .  A
C941       C1593   1.437       .  S
C942        H945   1.085       .  S
C946        C947   1.403       .  A
C946       C1588   1.440       .  S
C947        H952   1.085       .  S
C948        C949   1.398       .  A
C948       C1589   1.437       .  S
C949        C950   1.398       .  A
C949        H953   1.085       .  S
C950        C951   1.400       .  A
C950       C1596   1.434       .  S
C951        H954   1.085       .  S
C955        C956   1.403       .  A
C955        C960   1.397       .  A
C955       C1583   1.435       .  S
C956        C957   1.403       .  A
C956        H961   1.084       .  S
C957        C958   1.400       .  A
C957       C1581   1.440       .  S
C958        C959   1.400       .  A
C958        H962   1.085       .  S
C959        C960   1.396       .  A
C959       C1585   1.432       .  S
C960        H963   1.085       .  S
C964        C965   1.401       .  A
C964        C969   1.400       .  A
C964       C1580   1.438       .  S
C965        C966   1.401       .  A
C965        H970   1.085       .  S
C966        C967   1.397       .  A
C966       C1578   1.434       .  S
C967        C968   1.397       .  A
C967        H971   1.085       .  S
C968        C969   1.400       .  A
C968       C1586   1.432       .  S
C969        H972   1.085       .  S
C973        C974   1.401       .  A
C973        C978   1.402       .  A
C973       C1571   1.438       .  S
C974        C975   1.401       .  A
C974        H979   1.085       .  S
C975        C976   1.397       .  A
C975       C1576   1.433       .  S
C976        C977   1.396       .  A
C976        H980   1.085       .  S
C977        C978   1.401       .  A
C977       C1574   1.434       .  S
C978        H981   1.085       .  S
C982        C983   1.401       .  A
C982        C987   1.404       .  A
C982       C1569   1.442       .  S
C983        C984   1.401       .  A
C983        H988   1.085       .  S
C984        C985   1.396       .  A
C984       C1575   1.433       .  S
C985        C986   1.396       .  A
C985        H989   1.085       .  S
C986        C987   1.404       .  A
C986       C1567   1.437       .  S
C987        H990   1.084       .  S
C991        C992   1.404   1_554  A
C991        C996   1.402       .  A
C991       C1563   1.443       .  S
C992        C993   1.404       .  A
C992        H997   1.084       .  S
C993        C994   1.396       .  A
C993       C1561   1.437       .  S
C994        C995   1.396   1_556  A
C994        H998   1.085       .  S
C995        C996   1.401       .  A
C1000      C1001   1.401       .  A
C1000      C1005   1.402       .  A
C1000      C1558   1.439       .  S
C1001      C1002   1.401       .  A
C1001      H1006   1.085       .  S
C1002      C1003   1.396       .  A
C1002      C1560   1.432       .  S
C1003      C1004   1.396       .  A
C1003      H1007   1.085       .  S
C1004      C1005   1.402       .  A
C1004      C1565   1.433       .  S
C1005      H1008   1.084       .  S
C1009      C1010   1.400       .  A
C1009      C1014   1.400       .  A
C1009      C1554   1.436       .  S
C1010      C1011   1.400       .  A
C1010      H1015   1.085       .  S
C1011      C1012   1.397       .  A
C1011      C1555   1.432       .  S
C1012      C1013   1.397       .  A
C1012      H1016   1.085       .  S
C1013      C1014   1.400       .  A
C1013      C1552   1.432       .  S
C1014      H1017   1.085       .  S
C1018      C1019   1.403       .  A
C1018      C1023   1.400       .  A
C1018      C3204   1.439   1_455  S
C1019      C1020   1.402       .  A
C1019      H1024   1.084       .  S
C1020      C1021   1.397       .  A
C1020      C1550   1.436       .  S
C1021      C1022   1.397       .  A
C1021      H1025   1.085       .  S
C1022      C1023   1.400       .  A
C1022      C1556   1.432       .  S
C1023      H1026   1.085       .  S
C1027      C1028   1.400       .  A
C1027      C1032   1.404       .  A
C1027      C1543   1.442       .  S
C1028      C1029   1.400       .  A
C1028      H1033   1.085       .  S
C1029      C1030   1.397       .  A
C1029      C1545   1.432       .  S
C1030      C1031   1.397       .  A
C1030      H1034   1.085       .  S
C1031      C1032   1.404       .  A
C1031      C1542   1.437       .  S
C1032      H1035   1.084       .  S
C1036      C1037   1.400       .  A
C1036      C1041   1.402       .  A
C1036      C1539   1.439       .  S
C1037      H1042   1.085       .  S
C1038      C1039   1.397       .  A
C1038      C1546   1.432       .  S
C1039      H1043   1.085       .  S
C1040      C1041   1.402       .  A
C1040      C1538   1.434       .  S
C1041      H1044   1.085       .  S
C1045      C1046   1.397       .  A
C1045      C1050   1.404       .  A
C1045      C1533   1.438       .  S
C1046      C1047   1.397       .  A
C1046      H1051   1.085       .  S
C1047      C1048   1.400       .  A
C1047      C1536   1.433       .  S
C1048      C1049   1.401       .  A
C1048      H1052   1.085       .  S
C1049      C1050   1.405       .  A
C1049      C1531   1.443       .  S
C1050      H1053   1.084       .  S
C1054      C1059   1.400       .  A
C1055      H1060   1.085       .  S
C1056      C1057   1.397       .  A
C1056      C1530   1.434       .  S
C1057      C1058   1.397       .  A
C1057      H1061   1.085       .  S
C1058      C1059   1.400       .  A
C1058      C1535   1.433       .  S
C1059      H1062   1.085       .  S
C1063      C1064   1.399       .  A
C1063      C1068   1.402       .  A
C1063      C1524   1.438       .  S
C1064      C1065   1.399       .  A
C1064      H1069   1.085       .  S
C1065      C1066   1.400       .  A
C1065      C1526   1.435       .  S
C1066      C1067   1.400       .  A
C1066      H1070   1.085       .  S
C1067      C1068   1.402       .  A
C1067      C1522   1.438       .  S
C1068      H1071   1.085       .  S
C1072      C1073   1.401       .  A
C1072      C1077   1.403       .  A
C1072      C1517   1.441       .  S
C1073      H1078   1.085       .  S
C1074      C1075   1.398       .  A
C1074      C1525   1.435       .  S
C1075      H1079   1.085       .  S
C1076      C1077   1.403       .  A
C1076      C1520   1.438       .  S
C1077      H1080   1.084       .  S
C1081      C1082   1.401       .  A
C1081      C1086   1.402       .  A
C1081      C1513   1.439       .  S
C1082      C1083   1.401       .  A
C1083      C1084   1.399       .  A
C1084      C1085   1.398       .  A
C1084      H1088   1.085       .  S
C1085      C1086   1.402       .  A
C1085      C1511   1.437       .  S
C1086      H1089   1.085       .  S
C1090      C1091   1.401       .  A
C1090      C1095   1.404       .  A
C1090      C1509   1.442       .  S
C1091      C1092   1.401       .  A
C1091      H1096   1.085       .  S
C1092      C1093   1.398       .  A
C1092      C1515   1.436       .  S
C1093      C1094   1.398       .  A
C1093      H1097   1.085       .  S
C1094      C1095   1.404       .  A
C1094      C1507   1.439       .  S
C1095      H1098   1.084       .  S
C1099      C1100   1.403       .  A
C1099      C1104   1.401       .  A
C1099      C1504   1.440       .  S
C1100      C1101   1.403       .  A
C1100      H1105   1.084       .  S
C1101      C1102   1.397       .  A
C1101      C1501   1.437       .  S
C1102      C1103   1.397       .  A
C1102      H1106   1.085       .  S
C1103      C1104   1.400       .  A
C1103      C1505   1.434       .  S
C1104      H1107   1.085       .  S
C1108      C2765   1.401   1_455  A
C1108      C1113   1.401       .  A
C1108      C1498   1.437       .  S
C1109      C2764   1.401       .  A
C1109      C1110   1.401       .  A
C1109      H1114   1.085       .  S
C1110      C1111   1.398       .  A
C1110      C1506   1.434       .  S
C1111      C1112   1.398       .  A
C1111      H1115   1.085       .  S
C1112      C2769   1.400       .  A
C1112      C1499   1.435       .  S
C1113      C2768   1.400   1_455  A
C1113      H1116   1.085       .  S
C1117      C1118   1.402       .  A
C1117      C1122   1.404   1_554  A
C1117      C1491   1.443       .  S
C1118      C1119   1.402       .  A
C1118      H1123   1.085       .  S
C1119      C1120   1.398   1_554  A
C1119      C1496   1.436       .  S
C1120      C1121   1.398       .  A
C1120      H1124   1.085       .  S
C1121      C1122   1.404       .  A
C1121      C1493   1.440       .  S
C1122      H1125   1.084       .  S
C1126      C1127   1.402       .  A
C1126      C1131   1.403       .  A
C1126      C1490   1.440       .  S
C1127      C1128   1.402       .  A
C1127      H1132   1.085       .  S
C1128      C1129   1.398       .  A
C1128      C3151   1.436   1_455  S
C1129      C1130   1.398       .  A
C1129      H1133   1.085       .  S
C1130      C1131   1.402       .  A
C1130      C1487   1.437       .  S
C1131      H1134   1.085       .  S
C1135      C1136   1.399       .  A
C1135      C1140   1.403       .  A
C1135      C1484   1.439       .  S
C1136      C1137   1.399       .  A
C1136      H1141   1.085       .  S
C1137      C1138   1.398       .  A
C1137      C1485   1.432       .  S
C1138      C1139   1.398       .  A
C1138      H1142   1.085       .  S
C1139      C1140   1.403       .  A
C1139      C1481   1.438       .  S
C1140      H1143   1.084       .  S
C1144      C2801   1.398       .  A
C1144      C1149   1.403       .  A
C1144      C1478   1.437       .  S
C1145      C2800   1.398   1_455  A
C1145      C1146   1.398       .  A
C1145      H1150   1.085       .  S
C1146      C2803   1.399       .  A
C1146      C1486   1.432       .  S
C1147      C2802   1.399       .  A
C1147      C1148   1.399       .  A
C1147      H1151   1.085       .  S
C1148      C1149   1.404       .  A
C1148      C1479   1.439       .  S
C1149      H1152   1.084       .  S
O1153      C1164   1.291       .  A
O1153     Eu1189   2.468       .  S
O1154      C1165   1.288       .  A
O1154     Eu1188   2.450       .  S
O1155      C1166   1.287       .  A
O1155     Eu1161   2.446       .  S
O1156      C1167   1.290       .  A
O1156     Eu1161   2.461       .  S
O1157      C1167   1.288       .  A
O1157     Eu1191   2.452       .  S
O1158      C1166   1.291       .  A
O1158     Eu1190   2.466       .  S
O1159      C1165   1.291       .  A
O1159     Eu1161   2.469       .  S
O1160      C1164   1.288       .  A
O1160     Eu1161   2.448       .  S
Eu1161     O1171   2.354       .  S
Eu1161     O1163   2.356       .  S
Eu1161     O1162   2.344       .  S
Eu1161     O1169   2.354       .  S
O1162     Eu1191   2.353       .  S
O1162     Eu1188   2.348       .  S
O1163     Eu1189   2.347       .  S
O1163     Eu1190   2.349       .  S
C1164      C1654   1.433       .  S
C1165      C1587   1.434       .  S
C1166      C1644   1.433       .  S
C1167      C1523   1.433       .  S
H1168      O1169   0.965       .  S
O1169     Eu1190   2.345       .  S
O1169     Eu1188   2.362       .  S
H1170      O1171   0.966       .  S
O1171     Eu1189   2.355       .  S
O1171     Eu1191   2.353       .  S
O1172      C1195   1.292       .  A
O1172     Eu1188   2.473       .  S
O1173      C1196   1.288       .  A
O1173     Eu1189   2.452       .  S
O1174      C1197   1.292       .  A
O1174     Eu1190   2.470       .  S
O1175      C1198   1.287       .  A
O1175     Eu1191   2.446       .  S
O1176      C1199   1.290       .  A
O1176     Eu1191   2.460       .  S
O1177      C1200   1.288       .  A
O1177     Eu1190   2.448       .  S
O1178      C1201   1.293       .  A
O1178     Eu1192   2.474       .  S
O1179      C1202   1.289       .  A
O1179     Eu1192   2.456       .  S
O1180      C1201   1.287       .  A
O1180     Eu1190   2.443       .  S
O1181      C1202   1.291       .  A
O1181     Eu1191   2.469       .  S
O1182      C1197   1.286       .  A
O1182     Eu1188   2.439       .  S
O1183      C1200   1.292       .  A
O1183     Eu1189   2.470       .  S
O1184      C1199   1.287       .  A
O1184     Eu1189   2.446       .  S
O1185      C1198   1.291       .  A
O1185     Eu1188   2.464       .  S
O1186      C1195   1.287       .  A
O1186     Eu1192   2.441       .  S
O1187      C1196   1.290       .  A
O1187     Eu1192   2.458       .  S
Eu1188     O1206   2.344       .  S
Eu1188     O1194   2.350       .  S
Eu1189     O1193   2.357       .  S
Eu1189     O1204   2.354       .  S
Eu1190     O1204   2.361       .  S
Eu1190     O1194   2.350       .  S
Eu1191     O1193   2.348       .  S
Eu1191     O1206   2.353       .  S
Eu1192     O1193   2.351       .  S
Eu1192     O1204   2.347       .  S
Eu1192     O1206   2.360       .  S
Eu1192     O1194   2.349       .  S
C1195      C1622   1.433       .  S
C1196      C1592   1.432       .  S
C1197      C1562   1.431       .  S
C1198      C1483   1.433       .  S
C1199      C1577   1.429       .  S
C1200      C1480   1.433       .  S
C1201      C1494   1.434       .  S
C1202      C1637   1.436       .  S
H1203      O1204   0.965       .  S
H1205      O1206   0.965       .  S
O1207      C1218   1.292       .  A
O1207     Eu1243   2.471   1_556  S
O1208      C1219   1.289       .  A
O1208     Eu1242   2.456       .  S
O1209      C1220   1.291       .  A
O1209     Eu2871   2.466   1_456  S
O1210      C1221   1.288       .  A
O1210     Eu1215   2.452       .  S
O1211      C1221   1.292       .  A
O1211     Eu1245   2.470       .  S
O1212      C1220   1.287       .  A
O1213      C2875   1.290       .  A
O1213     Eu1215   2.460       .  S
O1214      C1218   1.287       .  A
O1214     Eu1215   2.445   1_556  S
Eu1215     O2865   2.466   1_554  S
Eu1215     O1225   2.358       .  S
Eu1215     O1217   2.352   1_554  S
Eu1215     O1216   2.351       .  S
Eu1215     O2879   2.347       .  S
O1216     Eu1245   2.350       .  S
O1216     Eu2898   2.359       .  S
O1217     Eu1243   2.352   1_556  S
O1217     Eu2072   2.353   1_566  S
C1218      C1640   1.434       .  S
C1219      C1489   1.435       .  S
C1219      O2869   1.290       .  A
C1220      C1590   1.431       .  S
C1221      C1624   1.435       .  S
H1222      O1223   0.965       .  S
O1223     Eu2871   2.347   1_455  S
O1223     Eu1242   2.350       .  S
H1224      O1225   0.965       .  S
O1225     Eu1243   2.347       .  S
O1225     Eu1245   2.349       .  S
O1226      C1249   1.291       .  A
O1227      C1250   1.289       .  A
O1228      C1251   1.289       .  A
O1228     Eu1244   2.457       .  S
O1229      C1252   1.290       .  A
O1229     Eu1245   2.461       .  S
O1230      C1253   1.289       .  A
O1230     Eu1245   2.456       .  S
O1231      C1254   1.292   1_455  A
O1231     Eu1244   2.469   1_556  S
O1232      C1255   1.288       .  A
O1232     Eu1246   2.453   1_455  S
O1233     Eu2902   2.463       .  S
O1234      C1255   1.290       .  A
O1234     Eu1244   2.462       .  S
O1235      C1256   1.287       .  A
O1235     Eu1245   2.443       .  S
O1236     Eu1242   2.470       .  S
O1237      C2910   1.286       .  A
O1238      C1253   1.289       .  A
O1238     Eu1243   2.457       .  S
O1239      C2908   1.288   1_455  A
O1239     Eu1242   2.449       .  S
O1240      C1249   1.287       .  A
O1240     Eu1246   2.442   1_455  S
O1241      C1250   1.291       .  A
O1241     Eu2902   2.468       .  S
Eu1242     O2872   2.359   1_455  S
Eu1242     O2916   2.355   1_455  S
Eu1243     O1247   2.349       .  S
Eu1243     O2086   2.360   1_565  S
Eu1244     O2045   2.353   1_454  S
Eu1244     O1258   2.347   1_455  S
Eu1244     O1248   2.349       .  S
Eu1245     O1247   2.355       .  S
Eu1245     O1260   2.355       .  S
Eu1246     O2889   2.463       .  S
Eu1246     O2897   2.468       .  S
Eu1246     O2075   2.347       .  S
Eu1246     O1258   2.350       .  S
Eu1246     O2088   2.355       .  S
Eu1246     O1248   2.356   1_655  S
O1247     Eu2074   2.347   1_565  S
C1249      C1601   1.429       .  S
C1250      C1492   1.438       .  S
C1251      C1564   1.437       .  S
C1252      C1500   1.430       .  S
C1252      O2895   1.288       .  A
C1253      C1557   1.433       .  S
C1254      C1477   1.432       .  S
C1254      O2893   1.286       .  A
C1255      C1617   1.435       .  S
C1256      C1537   1.429       .  S
H1257      O1258   0.965   1_455  S
O1258     Eu2071   2.360       .  S
H1259      O1260   0.966       .  S
O1260     Eu2898   2.355       .  S
O1260     Eu2074   2.355   1_565  S
O1261      C1272   1.290       .  A
O1261     Eu1297   2.461       .  S
O1262      C1273   1.288       .  A
O1262     Eu1296   2.454       .  S
O1263      C1274   1.289       .  A
O1263     Eu1269   2.454       .  S
O1264      C1275   1.292       .  A
O1264     Eu1269   2.469       .  S
O1265      C1275   1.286       .  A
O1265     Eu1299   2.439       .  S
O1266      C1274   1.289       .  A
O1266     Eu1298   2.456       .  S
O1267      C1273   1.292       .  A
O1267     Eu1269   2.474       .  S
O1268      C1272   1.287       .  A
O1268     Eu1269   2.442       .  S
Eu1269     O1279   2.357       .  S
Eu1269     O1271   2.356       .  S
Eu1269     O1270   2.346       .  S
Eu1269     O1277   2.353       .  S
O1270     Eu1299   2.358       .  S
O1270     Eu1296   2.347       .  S
O1271     Eu1297   2.346       .  S
O1271     Eu1298   2.348       .  S
C1272      C1634   1.428       .  S
C1273      C1532   1.438       .  S
C1274      C1614   1.432       .  S
C1275      C1573   1.429       .  S
H1276      O1277   0.965       .  S
O1277     Eu1298   2.349       .  S
O1277     Eu1296   2.359       .  S
H1278      O1279   0.966       .  S
O1279     Eu1297   2.353       .  S
O1279     Eu1299   2.355       .  S
O1280      C1303   1.291       .  A
O1280     Eu1296   2.465       .  S
O1281      C1304   1.288       .  A
O1281     Eu1297   2.449       .  S
O1282      C1305   1.292       .  A
O1282     Eu1298   2.469       .  S
O1283      C1306   1.288       .  A
O1283     Eu1299   2.453       .  S
O1284      C1307   1.291       .  A
O1284     Eu1299   2.467       .  S
O1285      C1308   1.288       .  A
O1285     Eu1298   2.453       .  S
O1286      C1309   1.292       .  A
O1286     Eu1300   2.469       .  S
O1287      C1310   1.287       .  A
O1287     Eu1300   2.447       .  S
O1288      C1309   1.286       .  A
O1288     Eu1298   2.439       .  S
O1289      C1310   1.291       .  A
O1289     Eu1299   2.469       .  S
O1290      C1305   1.286       .  A
O1290     Eu1296   2.437       .  S
O1291      C1308   1.291       .  A
O1291     Eu1297   2.464       .  S
O1292      C1307   1.287       .  A
O1292     Eu1297   2.446       .  S
O1293      C1306   1.289       .  A
O1293     Eu1296   2.454       .  S
O1294      C1303   1.285       .  A
O1294     Eu1300   2.434       .  S
O1295      C1304   1.290       .  A
O1295     Eu1300   2.459       .  S
Eu1296     O1314   2.348       .  S
Eu1296     O1302   2.347       .  S
Eu1297     O1301   2.353       .  S
Eu1297     O1312   2.352       .  S
Eu1298     O1312   2.360       .  S
Eu1298     O1302   2.345       .  S
Eu1299     O1301   2.344       .  S
Eu1299     O1314   2.350       .  S
Eu1300     O1301   2.347       .  S
Eu1300     O1312   2.343       .  S
Eu1300     O1314   2.361       .  S
Eu1300     O1302   2.346       .  S
C1303      C1597   1.428       .  S
C1304      C1528   1.432       .  S
C1305      C1502   1.431       .  S
C1306      C1553   1.431       .  S
C1307      C1512   1.432       .  S
C1308      C1547   1.433       .  S
C1309      C1541   1.431       .  S
C1310      C1607   1.433       .  S
H1311      O1312   0.966       .  S
H1313      O1314   0.965       .  S
O1315      C1326   1.287       .  A
O1315     Eu1351   2.446       .  S
O1316      C1327   1.292       .  A
O1316     Eu1350   2.473       .  S
O1317      C1328   1.288       .  A
O1317     Eu1323   2.450       .  S
O1318      C1329   1.292       .  A
O1318     Eu1323   2.470       .  S
O1319      C1329   1.287       .  A
O1319     Eu1353   2.443       .  S
O1320      C1328   1.292       .  A
O1320     Eu1352   2.470       .  S
O1321      C1327   1.286       .  A
O1321     Eu1323   2.439       .  S
O1322      C1326   1.291       .  A
O1322     Eu1323   2.465       .  S
Eu1323     O1333   2.346       .  S
Eu1323     O1325   2.347       .  S
Eu1323     O1324   2.351       .  S
Eu1323     O1331   2.360       .  S
O1324     Eu1353   2.350       .  S
O1324     Eu1350   2.351       .  S
O1325     Eu1351   2.356       .  S
O1325     Eu1352   2.345       .  S
C1326      C1652   1.434       .  S
C1327      C1568   1.432       .  S
C1328      C1582   1.434       .  S
C1329      C1508   1.434       .  S
H1330      O1331   0.965       .  S
O1331     Eu1352   2.350       .  S
O1331     Eu1350   2.345       .  S
H1332      O1333   0.965       .  S
O1333     Eu1351   2.353       .  S
O1333     Eu1353   2.359       .  S
O1334      C1357   1.288       .  A
O1334     Eu1350   2.453       .  S
O1335      C1358   1.290       .  A
O1335     Eu1351   2.463       .  S
O1336      C1359   1.288       .  A
O1336     Eu1352   2.449       .  S
O1337      C1360   1.291       .  A
O1337     Eu1353   2.466       .  S
O1338      C1361   1.288       .  A
O1338     Eu1353   2.453       .  S
O1339      C1362   1.291       .  A
O1339     Eu1352   2.464       .  S
O1340      C1363   1.291       .  A
O1340     Eu1354   2.467       .  S
O1341      C1364   1.288       .  A
O1341     Eu1354   2.449       .  S
O1342      C1363   1.287       .  A
O1342     Eu1352   2.445       .  S
O1343      C1364   1.290       .  A
O1343     Eu1353   2.460       .  S
O1344      C1359   1.290       .  A
O1344     Eu1350   2.461       .  S
O1345      C1362   1.287       .  A
O1345     Eu1351   2.444       .  S
O1346      C1361   1.292       .  A
O1346     Eu1351   2.471       .  S
O1347      C1360   1.286       .  A
O1347     Eu1350   2.439       .  S
O1348      C1357   1.292       .  A
O1348     Eu1354   2.470       .  S
O1349      C1358   1.288       .  A
O1349     Eu1354   2.449       .  S
Eu1350     O1368   2.361       .  S
Eu1350     O1356   2.348       .  S
Eu1351     O1355   2.344       .  S
Eu1351     O1366   2.354       .  S
Eu1352     O1366   2.354       .  S
Eu1352     O1356   2.355       .  S
Eu1353     O1355   2.349       .  S
Eu1353     O1368   2.348       .  S
Eu1354     O1355   2.357       .  S
Eu1354     O1366   2.353       .  S
Eu1354     O1368   2.354       .  S
Eu1354     O1356   2.346       .  S
C1357      C1648   1.435       .  S
C1358      C1594   1.432       .  S
C1359      C1521   1.433       .  S
C1360      C1628   1.429       .  S
C1361      C1518   1.436       .  S
C1362      C1642   1.431       .  S
C1363      C1482   1.432       .  S
C1364      C1579   1.432       .  S
H1365      O1366   0.966       .  S
H1367      O1368   0.965       .  S
O1369      C1380   1.291       .  A
O1369     Eu1405   2.467       .  S
O1370      C1381   1.288       .  A
O1370     Eu1404   2.452       .  S
O1371      C1382   1.289       .  A
O1371     Eu1377   2.455       .  S
O1372      C1383   1.291       .  A
O1372     Eu1377   2.467       .  S
O1373      C1383   1.287       .  A
O1373     Eu1407   2.446       .  S
O1374      C1382   1.290       .  A
O1374     Eu1406   2.460       .  S
O1375      C1381   1.292       .  A
O1375     Eu1377   2.473       .  S
O1376      C1380   1.287       .  A
O1376     Eu1377   2.445       .  S
Eu1377     O1387   2.356       .  S
Eu1377     O1379   2.357       .  S
Eu1377     O1378   2.348       .  S
Eu1377     O1385   2.352       .  S
O1378     Eu1407   2.357       .  S
O1378     Eu1404   2.350       .  S
O1379     Eu1405   2.346       .  S
O1379     Eu1406   2.348       .  S
C1380      C1619   1.432       .  S
C1381      C1544   1.436       .  S
C1382      C1604   1.434       .  S
C1383      C1488   1.432       .  S
H1384      O1385   0.965       .  S
O1385     Eu1406   2.346       .  S
O1385     Eu1404   2.359       .  S
H1386      O1387   0.966       .  S
O1387     Eu1405   2.354       .  S
O1387     Eu1407   2.357       .  S
O1388      C1411   1.292       .  A
O1388     Eu1404   2.469       .  S
O1389      C1412   1.288       .  A
O1389     Eu1405   2.450       .  S
O1390      C1413   1.291       .  A
O1390     Eu1406   2.466       .  S
O1391      C1414   1.289       .  A
O1391     Eu1407   2.454       .  S
O1392      C1415   1.290       .  A
O1392     Eu1407   2.462       .  S
O1393      C1416   1.288       .  A
O1393     Eu1406   2.451       .  S
O1394      C1417   1.292       .  A
O1394     Eu1408   2.470       .  S
O1395      C1418   1.289       .  A
O1395     Eu1408   2.457       .  S
O1396      C1417   1.286       .  A
O1396     Eu1406   2.439       .  S
O1397      C1418   1.291       .  A
O1397     Eu1407   2.470       .  S
O1398      C1413   1.286       .  A
O1398     Eu1404   2.439       .  S
O1399      C1416   1.291       .  A
O1399     Eu1405   2.467       .  S
O1400      C1415   1.286       .  A
O1400     Eu1405   2.439       .  S
O1401      C1414   1.289       .  A
O1401     Eu1404   2.456       .  S
O1402      C1411   1.285       .  A
O1402     Eu1408   2.431       .  S
O1403      C1412   1.290       .  A
O1403     Eu1408   2.461       .  S
Eu1404     O1422   2.348       .  S
Eu1404     O1410   2.346       .  S
Eu1405     O1409   2.355       .  S
Eu1405     O1420   2.351       .  S
Eu1406     O1420   2.361       .  S
Eu1406     O1410   2.346       .  S
Eu1407     O1409   2.346       .  S
Eu1407     O1422   2.351       .  S
Eu1408     O1409   2.345       .  S
Eu1408     O1420   2.347       .  S
Eu1408     O1422   2.362       .  S
Eu1408     O1410   2.348       .  S
C1411      C1610   1.428       .  S
C1412      C1540   1.433       .  S
C1413      C1549   1.430       .  S
C1414      C1497   1.432       .  S
C1415      C1559   1.427       .  S
C1416      C1503   1.434       .  S
C1417      C1534   1.433       .  S
C1418      C1599   1.437       .  S
H1419      O1420   0.966       .  S
H1421      O1422   0.965       .  S
O1423      C1434   1.292       .  A
O1424      C1435   1.288       .  A
O1425     Eu1431   2.468       .  S
O1426      C1437   1.289       .  A
O1426     Eu1431   2.458       .  S
O1427      C1437   1.291       .  A
O1427     Eu3117   2.465   1_455  S
O1428      C1436   1.287       .  A
O1428     Eu3116   2.442   1_455  S
O1429      C1435   1.290       .  A
O1429     Eu1431   2.458       .  S
O1430      C3090   1.287   1_455  A
O1430     Eu1431   2.443       .  S
Eu1431     O3097   2.358   1_455  S
Eu1431     O2261   2.351   1_455  S
Eu1431     O1432   2.349       .  S
O1432     Eu3117   2.348   1_455  S
O1433     Eu2259   2.351   1_565  S
O1433     Eu1459   2.351       .  S
O1433     Eu1460   2.352       .  S
C1434      C1650   1.433       .  S
C1434      O3086   1.287       .  A
C1435      C1572   1.433       .  S
C1436      C1519   1.432       .  S
C1437      C1629   1.436       .  S
O1439     Eu3116   2.355   1_455  S
O1439     Eu1458   2.347       .  S
H1440      O1441   0.965       .  S
O1441     Eu3087   2.358       .  S
O1441     Eu1461   2.348       .  S
O1442      C1465   1.290   1_455  A
O1442     Eu1458   2.460       .  S
O1443      C1466   1.289       .  A
O1443     Eu1459   2.455       .  S
O1444      C1467   1.288       .  A
O1444     Eu3116   2.454   1_455  S
O1445      C1468   1.290       .  A
O1445     Eu3117   2.459   1_455  S
O1446      C1469   1.289       .  A
O1446     Eu1461   2.454       .  S
O1447      C1470   1.291       .  A
O1447     Eu1460   2.463       .  S
O1448      C1471   1.289       .  A
O1448     Eu1462   2.452       .  S
O1449      C1472   1.291       .  A
O1449     Eu1462   2.465       .  S
O1450      C1471   1.289       .  A
O1450     Eu1460   2.458       .  S
O1451      C1472   1.287       .  A
O1452      C1467   1.291       .  A
O1452     Eu1458   2.470       .  S
O1453      C1470   1.286       .  A
O1453     Eu1459   2.438       .  S
O1454     Eu1459   2.459       .  S
O1455      C1468   1.287       .  A
O1456      C3121   1.287       .  A
O1456     Eu1462   2.445       .  S
O1457      C1466   1.292       .  A
O1457     Eu1462   2.470       .  S
Eu1458     O3132   2.355   1_455  S
Eu1458     O3120   2.347   1_455  S
Eu1459     O1463   2.349       .  S
Eu1459     O1474   2.358       .  S
Eu1460     O3084   2.442       .  S
Eu1460     O3100   2.454       .  S
Eu1460     O3095   2.355       .  S
Eu1460     O1474   2.347       .  S
Eu1460     O1464   2.349       .  S
Eu1461     O3083   2.465       .  S
Eu1461     O3101   2.459       .  S
Eu1461     O3088   2.348       .  S
Eu1462     O1463   2.347       .  S
Eu1462     O1474   2.350       .  S
Eu1462     O1476   2.354       .  S
Eu1462     O1464   2.358       .  S
O1464     Eu3114   2.347       .  S
C1465      C3268   1.428       .  S
C1465      O3112   1.287       .  A
C1466      C1570   1.436       .  S
C1467      C1510   1.437       .  S
C1468      C1551   1.427       .  S
C1469      C1514   1.434       .  S
C1470      C1584   1.429       .  S
C1471      C1632   1.432       .  S
C1472      C1529   1.429       .  S
H1473      O1474   0.965       .  S
H1475      O1476   0.966       .  S
O1476     Eu3114   2.355       .  S
C1477      C3134   1.204       .  T
C1478      C3133   1.204       .  T
C1479      C1480   1.205       .  T
C1481      C1482   1.204       .  T
C1483      C1484   1.205       .  T
C1485      C1486   1.201       .  T
C1487      C1488   1.204       .  T
C1489      C1490   1.206       .  T
C1491      C1492   1.208       .  T
C1493      C1494   1.206       .  T
C1495      C2784   1.436       .  S
C1495      C1496   1.204       .  T
C1497      C1498   1.204       .  T
C1499      C1500   1.203       .  T
C1501      C1502   1.204       .  T
C1503      C1504   1.206       .  T
C1505      C1506   1.202       .  T
C1507      C1508   1.205       .  T
C1509      C1510   1.207       .  T
C1511      C1512   1.204       .  T
C1513      C1514   1.205       .  T
C1515      C1516   1.203       .  T
C1517      C1518   1.207       .  T
C1519      C1520   1.205       .  T
C1521      C1522   1.205       .  T
C1523      C1524   1.205       .  T
C1525      C1526   1.203       .  T
C1527      C1528   1.205       .  T
C1529      C1530   1.202       .  T
C1531      C1532   1.208       .  T
C1533      C1534   1.205       .  T
C1535      C1536   1.202       .  T
C1537      C1538   1.203       .  T
C1539      C1540   1.205       .  T
C1541      C1542   1.204       .  T
C1543      C3200   1.207       .  T
C1544      C3199   1.207   1_455  T
C1545      C1546   1.201       .  T
C1547      C1548   1.205       .  T
C1548      C2674   1.439       .  S
C1549      C1550   1.203       .  T
C1551      C1552   1.201       .  T
C1553      C1554   1.204       .  T
C1555      C1556   1.201       .  T
C1557      C1558   1.205       .  T
C1559      C1560   1.201       .  T
C1561      C1562   1.204       .  T
C1563      C1564   1.208       .  T
C1565      C1566   1.202       .  T
C1567      C1568   1.204       .  T
C1569      C1570   1.207       .  T
C1571      C1572   1.205       .  T
C1573      C1574   1.203       .  T
C1575      C1576   1.202       .  T
C1577      C1578   1.203       .  T
C1579      C3236   1.205   1_455  T
C1580      C3235   1.205       .  T
C1581      C1582   1.206       .  T
C1583      C1584   1.203       .  T
C1585      C1586   1.201       .  T
C1587      C1588   1.206       .  T
C1589      C1590   1.204       .  T
C1591      C2593   1.437       .  S
C1591      C1592   1.204       .  T
C1593      C1594   1.204       .  T
C1595      C1596   1.203       .  T
C1597      C1598   1.202       .  T
C1599      C1600   1.207       .  T
C1601      C1602   1.202       .  T
C1603      C1604   1.205       .  T
C1605      C1606   1.201       .  T
C1609      C1610   1.202       .  T
C1611      C1612   1.202       .  T
C1612      C3121   1.428       .  S
C1613      C1614   1.204       .  T
C1615      C1616   1.201       .  T
C1617      C1618   1.206       .  T
C1619      C1620   1.204       .  T
C1621      C1622   1.205       .  T
C1623      C1624   1.207       .  T
C1625      C1626   1.203       .  T
C1627      C1628   1.203       .  T
C1629      C1630   1.207       .  T
C1631      C1632   1.205       .  T
C1633      C1634   1.202       .  T
C1635      C3292   1.202       .  T
C1636      C3291   1.202   1_455  T
C1637      C1638   1.207       .  T
C1639      C1640   1.206       .  T
C1641      C1642   1.204       .  T
C1645      C1646   1.203       .  T
C1647      C1648   1.206       .  T
C1649      C1650   1.205       .  T
C1651      C1652   1.206       .  T
C1653      C1654   1.205       .  T
C1655      C1656   1.203       .  T
C1657      C1658   1.400       .  A
C1657      C1662   1.403       .  A
C1657      C3307   1.439   1_545  S
C1658      C1659   1.400       .  A
C1658      H1663   1.085       .  S
C1659      C1660   1.399       .  A
C1659      C2483   1.434       .  S
C1660      C1661   1.399       .  A
C1660      H1664   1.085       .  S
C1661      C1662   1.403       .  A
C1661      C2481   1.438       .  S
C1662      H1665   1.084       .  S
C1666      C1671   1.403       .  A
C1666      C2475   1.441       .  S
C1667      C1668   1.400       .  A
C1667      H1672   1.085       .  S
C1668      C1669   1.398       .  A
C1668      C2484   1.434       .  S
C1669      C1670   1.398       .  A
C1669      H1673   1.085       .  S
C1670      C2477   1.438       .  S
C1671      H1674   1.084       .  S
C1675      C1676   1.400       .  A
C1675      C1680   1.402       .  A
C1675      C2471   1.439       .  S
C1676      C1677   1.400       .  A
C1676      H1681   1.085       .  S
C1677      C1678   1.398       .  A
C1677      C2473   1.434       .  S
C1678      C1679   1.398       .  A
C1678      H1682   1.085       .  S
C1679      C1680   1.402       .  A
C1679      C2469   1.436       .  S
C1680      H1683   1.085       .  S
C1684      C1685   1.404       .  A
C1684      C1689   1.401       .  A
C1684      C2466   1.442       .  S
C1685      C1686   1.404       .  A
C1685      H1690   1.084       .  S
C1686      C1687   1.398       .  A
C1686      C2467   1.439       .  S
C1687      C1688   1.398       .  A
C1687      H1691   1.085       .  S
C1688      C1689   1.400       .  A
C1688      C2474   1.435       .  S
C1689      H1692   1.085       .  S
C1693      C1694   1.401       .  A
C1693      C1698   1.401       .  A
C1693      C2459   1.438       .  S
C1694      C1695   1.401       .  A
C1694      H1699   1.085       .  S
C1695      C1696   1.397       .  A
C1695      C2463   1.433       .  S
C1696      C1697   1.396       .  A
C1696      H1700   1.085       .  S
C1697      C1698   1.401       .  A
C1697      C2461   1.433       .  S
C1698      H1701   1.085       .  S
C1702      C1703   1.402       .  A
C1702      C1707   1.396       .  A
C1702      C2455   1.435       .  S
C1703      C1704   1.403       .  A
C1703      H1708   1.084       .  S
C1704      C1705   1.402       .  A
C1704      C2458   1.441       .  S
C1705      C1706   1.401       .  A
C1706      C1707   1.396       .  A
C1706      C2464   1.433       .  S
C1707      H1710   1.085       .  S
C1711      C1712   1.404   1_554  A
C1711      C1716   1.401       .  A
C1711      C2451   1.441       .  S
C1712      C1713   1.404       .  A
C1712      H1717   1.084       .  S
C1713      C1714   1.398       .  A
C1713      C2449   1.438       .  S
C1714      C1715   1.398   1_556  A
C1714      H1718   1.085       .  S
C1715      C1716   1.400       .  A
C1715      C2454   1.435       .  S
C1716      H1719   1.085       .  S
C1720      C1721   1.401       .  A
C1720      C1725   1.403       .  A
C1720      C2446   1.440       .  S
C1721      C1722   1.401       .  A
C1721      H1726   1.085       .  S
C1722      C1723   1.398       .  A
C1722      C2453   1.435       .  S
C1723      C1724   1.398       .  A
C1723      H1727   1.085       .  S
C1724      C1725   1.402       .  A
C1724      C2448   1.437       .  S
C1725      H1728   1.085       .  S
C1729      C1730   1.400   1_655  A
C1729      C1734   1.401       .  A
C1729      C2441   1.437       .  S
C1730      H1735   1.085       .  S
C1731      C1732   1.397       .  A
C1731      C2443   1.431       .  S
C1732      H1736   1.085       .  S
C1733      C1734   1.400   1_455  A
C1733      C2439   1.433       .  S
C1734      H1737   1.085       .  S
C1738      C1739   1.403       .  A
C1738      C1743   1.400       .  A
C1738      C2436   1.438       .  S
C1739      C1740   1.403       .  A
C1739      H1744   1.084       .  S
C1740      C1741   1.396       .  A
C1740      C2437   1.434       .  S
C1741      C1742   1.395       .  A
C1741      H1745   1.085       .  S
C1742      C1743   1.399       .  A
C1742      C2444   1.431       .  S
C1743      H1746   1.085       .  S
C1747      C1748   1.401       .  A
C1747      C1752   1.402       .  A
C1747      C2431   1.439       .  S
C1748      C1749   1.401       .  A
C1748      H1753   1.085       .  S
C1749      C1750   1.396       .  A
C1749      C2433   1.432       .  S
C1750      C1751   1.396       .  A
C1750      H1754   1.085       .  S
C1751      C1752   1.401       .  A
C1751      C2430   1.434       .  S
C1752      H1755   1.085       .  S
C1756      C1757   1.395       .  A
C1756      C1761   1.403       .  A
C1756      C2426   1.434       .  S
C1757      C1758   1.395       .  A
C1757      H1762   1.085       .  S
C1758      C1759   1.401       .  A
C1758      C2434   1.432       .  S
C1759      C1760   1.402       .  A
C1759      H1763   1.085       .  S
C1760      C1761   1.403       .  A
C1760      C3256   1.442   1_545  S
C1761      H1764   1.084       .  S
C1765      C1766   1.400       .  A
C1765      C1770   1.401       .  A
C1766      C1767   1.400       .  A
C1766      H1771   1.085       .  S
C1767      C1768   1.399       .  A
C1767      C2423   1.435       .  S
C1768      C1769   1.399       .  A
C1768      H1772   1.085       .  S
C1769      C1770   1.401       .  A
C1769      C2421   1.437       .  S
C1770      H1773   1.085       .  S
C1774      C1775   1.403       .  A
C1774      C2607   1.400       .  A
C1774      C2416   1.440   1_565  S
C1775      C2604   1.403       .  A
C1775      H1780   1.085   1_565  S
C1776      C2603   1.403       .  A
C1776      C1777   1.398       .  A
C1776      C2417   1.437       .  S
C1777      C1778   1.398       .  A
C1777      H1781   1.085       .  S
C1778      C1779   1.400       .  A
C1778      C2424   1.434       .  S
C1779      C2602   1.400       .  A
C1779      H1782   1.085       .  S
C1783      C1784   1.403       .  A
C1783      C1788   1.397       .  A
C1783      C2411   1.435       .  S
C1784      C1785   1.403       .  A
C1784      H1789   1.084       .  S
C1785      C1786   1.400       .  A
C1785      C2409   1.440       .  S
C1786      C1787   1.400       .  A
C1786      H1790   1.085       .  S
C1787      C1788   1.396       .  A
C1787      C2413   1.432       .  S
C1788      H1791   1.085       .  S
C1792      C1793   1.401       .  A
C1792      C1797   1.400       .  A
C1792      C2408   1.438       .  S
C1793      C1794   1.401       .  A
C1793      H1798   1.085       .  S
C1794      C1795   1.397       .  A
C1794      C2406   1.434       .  S
C1795      C1796   1.397       .  A
C1795      H1799   1.085       .  S
C1796      C1797   1.400       .  A
C1796      C2414   1.432       .  S
C1797      H1800   1.085       .  S
C1801      C1802   1.401       .  A
C1801      C1806   1.402       .  A
C1801      C2399   1.438       .  S
C1802      C1803   1.401       .  A
C1802      H1807   1.085       .  S
C1803      C1804   1.397       .  A
C1803      C2404   1.433       .  S
C1804      C1805   1.396       .  A
C1804      H1808   1.085       .  S
C1805      C1806   1.401       .  A
C1805      C2402   1.434       .  S
C1806      H1809   1.085       .  S
C1810      C1811   1.401       .  A
C1810      C1815   1.404       .  A
C1810      C2397   1.442       .  S
C1811      C1812   1.401       .  A
C1811      H1816   1.085       .  S
C1812      C1813   1.396       .  A
C1812      C2403   1.433       .  S
C1813      C1814   1.396       .  A
C1813      H1817   1.085       .  S
C1814      C1815   1.404       .  A
C1814      C2395   1.437       .  S
C1815      H1818   1.084       .  S
C1819      C1820   1.404   1_554  A
C1819      C1824   1.402       .  A
C1819      C2391   1.443       .  S
C1820      C1821   1.404       .  A
C1820      H1825   1.084       .  S
C1821      C1822   1.396       .  A
C1821      C2389   1.437       .  S
C1822      C1823   1.396   1_556  A
C1822      H1826   1.085       .  S
C1823      C1824   1.401       .  A
C1823      C3222   1.433   1_545  S
C1824      H2655   1.085   1_545  S
H1827      C2652   1.085       .  S
C1828      C1829   1.401       .  A
C1828      C1833   1.402       .  A
C1828      C2386   1.439       .  S
C1829      C1830   1.401       .  A
C1829      H1834   1.085       .  S
C1830      C1831   1.396       .  A
C1830      C2388   1.432       .  S
C1831      C1832   1.396       .  A
C1831      H1835   1.085       .  S
C1832      C1833   1.402       .  A
C1832      C2393   1.433       .  S
C1833      H1836   1.084       .  S
C1837      C1838   1.400       .  A
C1837      C1842   1.400       .  A
C1837      C2382   1.436       .  S
C1838      C1839   1.400       .  A
C1838      H1843   1.085       .  S
C1839      C1840   1.397       .  A
C1839      C2383   1.432       .  S
C1840      C1841   1.397       .  A
C1840      H1844   1.085       .  S
C1841      C1842   1.400       .  A
C1841      C2380   1.432       .  S
C1842      H1845   1.085       .  S
C1846      C1847   1.403       .  A
C1846      C1851   1.400       .  A
C1847      C1848   1.402       .  A
C1847      H1852   1.084       .  S
C1848      C1849   1.397       .  A
C1848      C2378   1.436       .  S
C1849      C1850   1.397       .  A
C1849      H1853   1.085       .  S
C1850      C1851   1.400       .  A
C1850      C2384   1.432       .  S
C1851      H1854   1.085       .  S
C1855      C1856   1.400       .  A
C1855      C1860   1.404       .  A
C1855      C2371   1.442       .  S
C1856      C1857   1.400       .  A
C1856      H1861   1.085       .  S
C1857      C1858   1.397       .  A
C1857      C2373   1.432       .  S
C1858      C1859   1.397       .  A
C1858      H1862   1.085       .  S
C1859      C1860   1.404       .  A
C1859      C2370   1.437       .  S
C1860      H1863   1.084       .  S
C1864      C1865   1.400       .  A
C1864      C1869   1.402       .  A
C1864      C2367   1.439       .  S
C1865      C2694   1.400       .  A
C1865      H1870   1.085       .  S
C1866      C2693   1.400   1_545  A
C1866      C1867   1.397       .  A
C1866      C2374   1.432       .  S
C1867      C2696   1.397   1_545  A
C1867      H1871   1.085       .  S
C1868      C2695   1.397       .  A
C1868      C1869   1.402       .  A
C1868      C2366   1.434       .  S
C1869      H1872   1.085       .  S
C1873      C1874   1.397       .  A
C1873      C1878   1.404       .  A
C1873      C2361   1.438       .  S
C1874      C1875   1.397       .  A
C1874      H1879   1.085       .  S
C1875      C1876   1.400       .  A
C1875      C2364   1.433       .  S
C1876      C1877   1.401       .  A
C1876      H1880   1.085       .  S
C1877      C1878   1.405       .  A
C1877      C2359   1.443       .  S
C1878      H1881   1.084       .  S
C1882      C2711   1.402       .  A
C1882      C1887   1.400       .  A
C1882      C3183   1.438       .  S
C1883      C2710   1.402       .  A
C1883      C2712   1.401       .  A
C1883      H1888   1.085   1_565  S
C1884      C2711   1.401       .  A
C1884      C1885   1.397       .  A
C1884      C2358   1.434       .  S
C1885      C1886   1.397       .  A
C1885      H1889   1.085       .  S
C1886      C1887   1.400       .  A
C1886      C2363   1.433       .  S
C1887      H1890   1.085       .  S
C1891      C1892   1.399       .  A
C1891      C1896   1.402       .  A
C1891      C2352   1.438       .  S
C1892      C1893   1.399       .  A
C1892      H1897   1.085       .  S
C1893      C1894   1.400       .  A
C1893      C2354   1.435       .  S
C1894      C1895   1.400       .  A
C1894      H1898   1.085       .  S
C1895      C1896   1.402       .  A
C1895      C2350   1.438       .  S
C1896      H1899   1.085       .  S
C1900      C1901   1.401       .  A
C1900      C1905   1.403       .  A
C1900      C2345   1.441       .  S
C1901      C2730   1.400       .  A
C1901      H1906   1.085       .  S
C1902      C2729   1.400   1_545  A
C1902      C1903   1.398       .  A
C1902      C2353   1.435       .  S
C1903      C2732   1.398   1_545  A
C1903      H1907   1.085       .  S
C1904      C2731   1.398       .  A
C1904      C1905   1.403       .  A
C1904      C2348   1.438       .  S
C1905      H1908   1.084       .  S
C1909      C1910   1.401       .  A
C1909      C1914   1.402       .  A
C1909      C2341   1.439       .  S
C1910      C1911   1.401       .  A
C1910      H2743   1.085   1_545  S
C1911      C1912   1.399       .  A
C1911      C3172   1.436   1_545  S
C1912      C1913   1.398       .  A
C1912      H1916   1.085       .  S
C1913      C1914   1.402       .  A
C1913      C2339   1.437       .  S
C1914      H1917   1.085       .  S
H1915      C2738   1.085       .  S
C1918      C1919   1.401       .  A
C1918      C1923   1.404       .  A
C1918      C2337   1.442       .  S
C1919      C1920   1.401       .  A
C1919      H1924   1.085       .  S
C1920      C1921   1.398       .  A
C1920      C2343   1.436       .  S
C1921      C1922   1.398       .  A
C1921      H1925   1.085       .  S
C1922      C1923   1.404       .  A
C1922      C2335   1.439       .  S
C1923      H1926   1.084       .  S
C1927      C1928   1.403       .  A
C1927      C1932   1.401       .  A
C1927      C2332   1.440       .  S
C1928      C1929   1.403       .  A
C1928      H1933   1.084       .  S
C1929      C1930   1.397       .  A
C1929      C2329   1.437       .  S
C1930      C1931   1.397       .  A
C1930      H1934   1.085       .  S
C1931      C1932   1.400       .  A
C1931      C2333   1.434       .  S
C1932      H1935   1.085       .  S
C1936      C1941   1.401       .  A
C1936      C2326   1.437       .  S
C1937      C1938   1.401       .  A
C1937      H1942   1.085       .  S
C1938      C1939   1.398       .  A
C1938      C2334   1.434       .  S
C1939      C1940   1.398       .  A
C1939      H1943   1.085       .  S
C1940      C2327   1.435       .  S
C1941      H1944   1.085       .  S
C1945      C1946   1.402       .  A
C1945      C1950   1.404   1_554  A
C1945      C2319   1.443       .  S
C1946      C1947   1.402       .  A
C1946      H1951   1.085       .  S
C1947      C1948   1.398   1_554  A
C1947      C2324   1.436       .  S
C1948      C1949   1.398       .  A
C1948      H1952   1.085       .  S
C1949      C1950   1.404       .  A
C1949      C2321   1.440       .  S
C1950      H1953   1.084       .  S
C1954      C1955   1.402       .  A
C1954      C1959   1.403       .  A
C1954      C2318   1.440       .  S
C1955      C1956   1.402       .  A
C1955      H1960   1.085       .  S
C1956      C1957   1.398       .  A
C1957      C1958   1.398       .  A
C1957      H1961   1.085       .  S
C1958      C1959   1.402       .  A
C1958      C2315   1.437       .  S
C1959      H1962   1.085       .  S
C1963      C1964   1.399       .  A
C1963      C1968   1.403       .  A
C1963      C2312   1.439       .  S
C1964      C1965   1.399       .  A
C1964      H1969   1.085       .  S
C1965      C1966   1.398       .  A
C1965      C2313   1.432       .  S
C1966      C1967   1.398       .  A
C1966      H1970   1.085       .  S
C1967      C1968   1.403       .  A
C1967      C2309   1.438       .  S
C1968      H1971   1.084       .  S
C1972      C1977   1.403       .  A
C1972      C2306   1.437       .  S
C1973      C1974   1.398       .  A
C1973      H1978   1.085       .  S
C1974      C2314   1.432       .  S
C1975      C1976   1.399   1_455  A
C1975      H1979   1.085       .  S
C1976      C1977   1.404       .  A
C1976      C2307   1.439       .  S
C1977      H1980   1.084       .  S
O1981      C1992   1.291       .  A
O1981     Eu2017   2.468       .  S
O1982      C1993   1.288       .  A
O1982     Eu2016   2.450       .  S
O1983      C1994   1.287       .  A
O1983     Eu1989   2.446       .  S
O1984      C1995   1.290       .  A
O1984     Eu1989   2.461       .  S
O1985      C1995   1.288       .  A
O1985     Eu2019   2.452       .  S
O1986      C1994   1.291       .  A
O1986     Eu2018   2.466       .  S
O1987      C1993   1.291       .  A
O1987     Eu1989   2.469       .  S
O1988      C1992   1.288       .  A
O1988     Eu1989   2.448       .  S
Eu1989     O1999   2.354       .  S
Eu1989     O1991   2.356       .  S
Eu1989     O1990   2.344       .  S
Eu1989     O1997   2.354       .  S
O1990     Eu2019   2.353       .  S
O1990     Eu2016   2.348       .  S
O1991     Eu2017   2.347       .  S
O1991     Eu2018   2.349       .  S
C1992      C2482   1.433       .  S
C1993      C2415   1.434       .  S
C1994      C2472   1.433       .  S
C1995      C2351   1.433       .  S
H1996      O1997   0.965       .  S
O1997     Eu2018   2.345       .  S
O1997     Eu2016   2.362       .  S
H1998      O1999   0.966       .  S
O1999     Eu2017   2.355       .  S
O1999     Eu2019   2.353       .  S
O2000      C2023   1.292       .  A
O2000     Eu2016   2.473       .  S
O2001      C2024   1.288       .  A
O2001     Eu2017   2.452       .  S
O2002      C2025   1.292       .  A
O2002     Eu2018   2.470       .  S
O2003      C2026   1.287       .  A
O2003     Eu2019   2.446       .  S
O2004      C2027   1.290       .  A
O2004     Eu2019   2.460       .  S
O2005      C2028   1.288       .  A
O2005     Eu2018   2.448       .  S
O2006      C2029   1.293       .  A
O2006     Eu2020   2.474       .  S
O2007      C2030   1.289       .  A
O2007     Eu2020   2.456       .  S
O2008      C2029   1.287       .  A
O2008     Eu2018   2.443       .  S
O2009      C2030   1.291       .  A
O2009     Eu2019   2.469       .  S
O2010      C2025   1.286       .  A
O2010     Eu2016   2.439       .  S
O2011      C2028   1.292       .  A
O2011     Eu2017   2.470       .  S
O2012      C2027   1.287       .  A
O2012     Eu2017   2.446       .  S
O2013      C2026   1.291       .  A
O2013     Eu2016   2.464       .  S
O2014      C2023   1.287       .  A
O2014     Eu2020   2.441       .  S
O2015      C2024   1.290       .  A
O2015     Eu2020   2.458       .  S
Eu2016     O2034   2.344       .  S
Eu2016     O2022   2.350       .  S
Eu2017     O2021   2.357       .  S
Eu2017     O2032   2.354       .  S
Eu2018     O2032   2.361       .  S
Eu2018     O2022   2.350       .  S
Eu2019     O2021   2.348       .  S
Eu2019     O2034   2.353       .  S
Eu2020     O2021   2.351       .  S
Eu2020     O2032   2.347       .  S
Eu2020     O2034   2.360       .  S
Eu2020     O2022   2.349       .  S
C2023      C2450   1.433       .  S
C2024      C2420   1.432       .  S
C2025      C2390   1.431       .  S
C2026      C2311   1.433       .  S
C2027      C2405   1.429       .  S
C2028      C2308   1.433       .  S
C2029      C2322   1.434       .  S
C2030      C2465   1.436       .  S
H2031      O2032   0.965       .  S
H2033      O2034   0.965       .  S
O2035      C2046   1.292       .  A
O2035     Eu2071   2.471   1_556  S
O2036      C2047   1.289       .  A
O2036     Eu2070   2.456       .  S
O2037      C2048   1.291       .  A
O2038      C2049   1.288       .  A
O2038     Eu2043   2.452       .  S
O2039      C2049   1.292       .  A
O2039     Eu2073   2.470       .  S
O2040      C2048   1.287       .  A
O2040     Eu2900   2.441   1_556  S
O2041     Eu2043   2.460   1_455  S
O2042      C2046   1.287       .  A
O2042     Eu2043   2.445   1_556  S
Eu2043     O2053   2.358       .  S
Eu2043     O2045   2.352   1_554  S
Eu2043     O2044   2.351       .  S
O2044     Eu2073   2.350       .  S
O2045     Eu2071   2.352   1_556  S
C2046      C2468   1.434       .  S
C2047      C2317   1.435       .  S
C2048      C2418   1.431       .  S
C2049      C2452   1.435       .  S
H2050      O2051   0.965       .  S
O2051     Eu2900   2.358       .  S
O2051     Eu2070   2.350       .  S
H2052      O2053   0.965       .  S
O2053     Eu2071   2.347       .  S
O2053     Eu2073   2.349       .  S
O2054      C2077   1.291       .  A
O2054     Eu2898   2.464   1_545  S
O2055      C2078   1.289       .  A
O2055     Eu2899   2.458   1_545  S
O2056      C2079   1.289       .  A
O2056     Eu2072   2.457       .  S
O2057      C2080   1.290       .  A
O2057     Eu2073   2.461       .  S
O2058      C2081   1.289       .  A
O2058     Eu2073   2.456       .  S
O2059      C2082   1.292       .  A
O2059     Eu2072   2.469   1_556  S
O2060      C2083   1.288       .  A
O2060     Eu2074   2.453       .  S
O2061      C2912   1.291   1_545  A
O2062      C2083   1.290       .  A
O2062     Eu2072   2.462       .  S
O2063      C2084   1.287       .  A
O2063     Eu2073   2.443       .  S
O2064      C2907   1.292       .  A
O2064     Eu2070   2.470       .  S
O2065     Eu2899   2.440   1_546  S
O2066      C2081   1.289       .  A
O2066     Eu2071   2.457       .  S
O2067     Eu2070   2.449       .  S
O2068      C2077   1.287       .  A
O2068     Eu2074   2.442       .  S
O2069      C2078   1.291       .  A
Eu2070     O2882   2.464       .  S
Eu2070     O2904   2.349       .  S
Eu2071     O2883   2.458       .  S
Eu2071     O2893   2.440   1_554  S
Eu2071     O2075   2.349       .  S
Eu2072     O2868   2.441   1_544  S
Eu2072     O2879   2.358   1_545  S
Eu2072     O2086   2.347       .  S
Eu2072     O2076   2.349       .  S
Eu2073     O2075   2.355       .  S
Eu2073     O2088   2.355       .  S
Eu2074     O2086   2.350       .  S
Eu2074     O2076   2.356       .  S
O2076     Eu2898   2.349   1_545  S
C2077      C2429   1.429       .  S
C2078      C2320   1.438       .  S
C2079      C2392   1.437       .  S
C2079      O2892   1.292   1_545  A
C2080      C2328   1.430       .  S
C2081      C2385   1.433       .  S
C2082      C2305   1.432       .  S
C2083      C2445   1.435       .  S
C2084      C2365   1.429       .  S
C2084      O2889   1.291       .  A
H2085      O2086   0.965       .  S
H2087      O2088   0.966       .  S
O2089      C2100   1.290       .  A
O2089     Eu2125   2.461       .  S
O2090      C2101   1.288       .  A
O2090     Eu2124   2.454       .  S
O2091      C2102   1.289       .  A
O2091     Eu2097   2.454       .  S
O2092      C2103   1.292       .  A
O2092     Eu2097   2.469       .  S
O2093      C2103   1.286       .  A
O2093     Eu2127   2.439       .  S
O2094      C2102   1.289       .  A
O2094     Eu2126   2.456       .  S
O2095      C2101   1.292       .  A
O2095     Eu2097   2.474       .  S
O2096      C2100   1.287       .  A
O2096     Eu2097   2.442       .  S
Eu2097     O2107   2.357       .  S
Eu2097     O2099   2.356       .  S
Eu2097     O2098   2.346       .  S
Eu2097     O2105   2.353       .  S
O2098     Eu2127   2.358       .  S
O2098     Eu2124   2.347       .  S
O2099     Eu2125   2.346       .  S
O2099     Eu2126   2.348       .  S
C2100      C2462   1.428       .  S
C2101      C2360   1.438       .  S
C2102      C2442   1.432       .  S
C2103      C2401   1.429       .  S
H2104      O2105   0.965       .  S
O2105     Eu2126   2.349       .  S
O2105     Eu2124   2.359       .  S
H2106      O2107   0.966       .  S
O2107     Eu2125   2.353       .  S
O2107     Eu2127   2.355       .  S
O2108      C2131   1.291       .  A
O2108     Eu2124   2.465       .  S
O2109      C2132   1.288       .  A
O2109     Eu2125   2.449       .  S
O2110      C2133   1.292       .  A
O2110     Eu2126   2.469       .  S
O2111      C2134   1.288       .  A
O2111     Eu2127   2.453       .  S
O2112      C2135   1.291       .  A
O2112     Eu2127   2.467       .  S
O2113      C2136   1.288       .  A
O2113     Eu2126   2.453       .  S
O2114      C2137   1.292       .  A
O2114     Eu2128   2.469       .  S
O2115      C2138   1.287       .  A
O2115     Eu2128   2.447       .  S
O2116      C2137   1.286       .  A
O2116     Eu2126   2.439       .  S
O2117      C2138   1.291       .  A
O2117     Eu2127   2.469       .  S
O2118      C2133   1.286       .  A
O2118     Eu2124   2.437       .  S
O2119      C2136   1.291       .  A
O2119     Eu2125   2.464       .  S
O2120      C2135   1.287       .  A
O2120     Eu2125   2.446       .  S
O2121      C2134   1.289       .  A
O2121     Eu2124   2.454       .  S
O2122      C2131   1.285       .  A
O2122     Eu2128   2.434       .  S
O2123      C2132   1.290       .  A
O2123     Eu2128   2.459       .  S
Eu2124     O2142   2.348       .  S
Eu2124     O2130   2.347       .  S
Eu2125     O2129   2.353       .  S
Eu2125     O2140   2.352       .  S
Eu2126     O2140   2.360       .  S
Eu2126     O2130   2.345       .  S
Eu2127     O2129   2.344       .  S
Eu2127     O2142   2.350       .  S
Eu2128     O2129   2.347       .  S
Eu2128     O2140   2.343       .  S
Eu2128     O2142   2.361       .  S
Eu2128     O2130   2.346       .  S
C2131      C2425   1.428       .  S
C2132      C2356   1.432       .  S
C2133      C2330   1.431       .  S
C2134      C2381   1.431       .  S
C2135      C2340   1.432       .  S
C2136      C2375   1.433       .  S
C2137      C2369   1.431       .  S
C2138      C2435   1.433       .  S
H2139      O2140   0.966       .  S
H2141      O2142   0.965       .  S
O2143      C2154   1.287       .  A
O2143     Eu2179   2.446       .  S
O2144      C2155   1.292       .  A
O2144     Eu2178   2.473       .  S
O2145      C2156   1.288       .  A
O2145     Eu2151   2.450       .  S
O2146      C2157   1.292       .  A
O2146     Eu2151   2.470       .  S
O2147      C2157   1.287       .  A
O2147     Eu2181   2.443       .  S
O2148      C2156   1.292       .  A
O2148     Eu2180   2.470       .  S
O2149      C2155   1.286       .  A
O2149     Eu2151   2.439       .  S
O2150      C2154   1.291       .  A
O2150     Eu2151   2.465       .  S
Eu2151     O2161   2.346       .  S
Eu2151     O2153   2.347       .  S
Eu2151     O2152   2.351       .  S
Eu2151     O2159   2.360       .  S
O2152     Eu2181   2.350       .  S
O2152     Eu2178   2.351       .  S
O2153     Eu2179   2.356       .  S
O2153     Eu2180   2.345       .  S
C2154      C2480   1.434       .  S
C2155      C2396   1.432       .  S
C2156      C2410   1.434       .  S
C2157      C2336   1.434       .  S
H2158      O2159   0.965       .  S
O2159     Eu2180   2.350       .  S
O2159     Eu2178   2.345       .  S
H2160      O2161   0.965       .  S
O2161     Eu2179   2.353       .  S
O2161     Eu2181   2.359       .  S
O2162      C2185   1.288       .  A
O2162     Eu2178   2.453       .  S
O2163      C2186   1.290       .  A
O2163     Eu2179   2.463       .  S
O2164      C2187   1.288       .  A
O2164     Eu2180   2.449       .  S
O2165      C2188   1.291       .  A
O2165     Eu2181   2.466       .  S
O2166      C2189   1.288       .  A
O2166     Eu2181   2.453       .  S
O2167      C2190   1.291       .  A
O2167     Eu2180   2.464       .  S
O2168      C2191   1.291       .  A
O2168     Eu2182   2.467       .  S
O2169      C2192   1.288       .  A
O2169     Eu2182   2.449       .  S
O2170      C2191   1.287       .  A
O2170     Eu2180   2.445       .  S
O2171      C2192   1.290       .  A
O2171     Eu2181   2.460       .  S
O2172      C2187   1.290       .  A
O2172     Eu2178   2.461       .  S
O2173      C2190   1.287       .  A
O2173     Eu2179   2.444       .  S
O2174      C2189   1.292       .  A
O2174     Eu2179   2.471       .  S
O2175      C2188   1.286       .  A
O2175     Eu2178   2.439       .  S
O2176      C2185   1.292       .  A
O2176     Eu2182   2.470       .  S
O2177      C2186   1.288       .  A
O2177     Eu2182   2.449       .  S
Eu2178     O2196   2.361       .  S
Eu2178     O2184   2.348       .  S
Eu2179     O2183   2.344       .  S
Eu2179     O2194   2.354       .  S
Eu2180     O2194   2.354       .  S
Eu2180     O2184   2.355       .  S
Eu2181     O2183   2.349       .  S
Eu2181     O2196   2.348       .  S
Eu2182     O2183   2.357       .  S
Eu2182     O2194   2.353       .  S
Eu2182     O2196   2.354       .  S
Eu2182     O2184   2.346       .  S
C2185      C2476   1.435       .  S
C2186      C2422   1.432       .  S
C2187      C2349   1.433       .  S
C2188      C2456   1.429       .  S
C2189      C2346   1.436       .  S
C2190      C2470   1.431       .  S
C2191      C2310   1.432       .  S
C2192      C2407   1.432       .  S
H2193      O2194   0.966       .  S
H2195      O2196   0.965       .  S
O2197      C2208   1.291       .  A
O2197     Eu2233   2.467       .  S
O2198      C2209   1.288       .  A
O2198     Eu2232   2.452       .  S
O2199      C2210   1.289       .  A
O2199     Eu2205   2.455       .  S
O2200      C2211   1.291       .  A
O2200     Eu2205   2.467       .  S
O2201      C2211   1.287       .  A
O2201     Eu2235   2.446       .  S
O2202      C2210   1.290       .  A
O2202     Eu2234   2.460       .  S
O2203      C2209   1.292       .  A
O2203     Eu2205   2.473       .  S
O2204      C2208   1.287       .  A
O2204     Eu2205   2.445       .  S
Eu2205     O2215   2.356       .  S
Eu2205     O2207   2.357       .  S
Eu2205     O2206   2.348       .  S
Eu2205     O2213   2.352       .  S
O2206     Eu2235   2.357       .  S
O2206     Eu2232   2.350       .  S
O2207     Eu2233   2.346       .  S
O2207     Eu2234   2.348       .  S
C2208      C2447   1.432       .  S
C2209      C2372   1.436       .  S
C2210      C2432   1.434       .  S
C2211      C2316   1.432       .  S
H2212      O2213   0.965       .  S
O2213     Eu2234   2.346       .  S
O2213     Eu2232   2.359       .  S
H2214      O2215   0.966       .  S
O2215     Eu2233   2.354       .  S
O2215     Eu2235   2.357       .  S
O2216      C2239   1.292       .  A
O2216     Eu2232   2.469       .  S
O2217      C2240   1.288       .  A
O2217     Eu2233   2.450       .  S
O2218      C2241   1.291       .  A
O2218     Eu2234   2.466       .  S
O2219      C2242   1.289       .  A
O2219     Eu2235   2.454       .  S
O2220      C2243   1.290       .  A
O2220     Eu2235   2.462       .  S
O2221      C2244   1.288       .  A
O2221     Eu2234   2.451       .  S
O2222      C2245   1.292       .  A
O2222     Eu2236   2.470       .  S
O2223      C2246   1.289       .  A
O2223     Eu2236   2.457       .  S
O2224      C2245   1.286       .  A
O2224     Eu2234   2.439       .  S
O2225      C2246   1.291       .  A
O2225     Eu2235   2.470       .  S
O2226      C2241   1.286       .  A
O2226     Eu2232   2.439       .  S
O2227      C2244   1.291       .  A
O2227     Eu2233   2.467       .  S
O2228      C2243   1.286       .  A
O2228     Eu2233   2.439       .  S
O2229      C2242   1.289       .  A
O2229     Eu2232   2.456       .  S
O2230      C2239   1.285       .  A
O2230     Eu2236   2.431       .  S
O2231      C2240   1.290       .  A
O2231     Eu2236   2.462       .  S
Eu2232     O2250   2.348       .  S
Eu2232     O2238   2.346       .  S
Eu2233     O2237   2.355       .  S
Eu2233     O2248   2.351       .  S
Eu2234     O2248   2.361       .  S
Eu2234     O2238   2.346       .  S
Eu2235     O2237   2.346       .  S
Eu2235     O2250   2.351       .  S
Eu2236     O2237   2.345       .  S
Eu2236     O2248   2.347       .  S
Eu2236     O2250   2.362       .  S
Eu2236     O2238   2.348       .  S
C2239      C2438   1.428       .  S
C2240      C2368   1.433       .  S
C2241      C2377   1.430       .  S
C2242      C2325   1.432       .  S
C2243      C2387   1.427       .  S
C2244      C2331   1.434       .  S
C2245      C2362   1.433       .  S
C2246      C2427   1.437       .  S
H2247      O2248   0.966       .  S
H2249      O2250   0.965       .  S
O2251      C2262   1.292       .  A
O2251     Eu3115   2.468   1_545  S
O2252      C2263   1.288       .  A
O2252     Eu3114   2.452   1_545  S
O2253      C3092   1.291   1_545  A
O2253     Eu2259   2.468       .  S
O2254      C2265   1.289       .  A
O2254     Eu2259   2.458       .  S
O2255      C2265   1.291       .  A
O2256      C2264   1.287       .  A
O2257      C2263   1.290       .  A
O2257     Eu2259   2.458       .  S
O2258     Eu2259   2.443       .  S
Eu2259     O2260   2.349       .  S
Eu2259     O3095   2.348   1_545  S
O2260     Eu3114   2.358   1_545  S
O2261     Eu2287   2.351       .  S
O2261     Eu2288   2.352       .  S
C2262      C2478   1.433       .  S
C2263      C2400   1.433       .  S
C2264      C2347   1.432       .  S
C2264      O3081   1.291       .  A
C2265      C2457   1.436       .  S
H2266      O3095   0.966       .  S
O2267     Eu3087   2.348       .  S
O2267     Eu2286   2.347       .  S
O2267      H3094   0.966       .  S
H2268      O2269   0.965       .  S
O2269     Eu3115   2.345   1_545  S
O2269     Eu2289   2.348       .  S
O2270      C2293   1.290       .  A
O2270     Eu2286   2.460       .  S
O2271      C2294   1.289       .  A
O2271     Eu2287   2.455       .  S
O2272      C2295   1.288       .  A
O2273      C2296   1.290       .  A
O2274      C2297   1.289       .  A
O2274     Eu2289   2.454       .  S
O2275      C2298   1.291       .  A
O2275     Eu2288   2.463       .  S
O2276      C2299   1.289       .  A
O2276     Eu2290   2.452       .  S
O2277      C2300   1.291       .  A
O2277     Eu2290   2.465       .  S
O2278      C2299   1.289       .  A
O2278     Eu2288   2.458       .  S
O2279      C2300   1.287       .  A
O2279     Eu3117   2.441       .  S
O2280      C2295   1.291       .  A
O2280     Eu2286   2.470       .  S
O2281      C2298   1.286       .  A
O2281     Eu2287   2.438       .  S
O2282      C3125   1.290       .  A
O2282     Eu2287   2.459       .  S
O2283      C2296   1.287       .  A
O2283     Eu3114   2.442   1_545  S
O2284     Eu2290   2.445       .  S
O2285      C2294   1.292       .  A
O2285     Eu2290   2.470       .  S
Eu2286     O3080   2.452       .  S
Eu2286     O3111   2.442       .  S
Eu2286     O3088   2.358       .  S
Eu2287     O3079   2.468       .  S
Eu2287     O3097   2.345       .  S
Eu2287     O2291   2.349       .  S
Eu2287     O2302   2.358       .  S
Eu2288     O2302   2.347       .  S
Eu2288     O2292   2.349       .  S
Eu2289     O3107   2.441   1_545  S
Eu2289     O3119   2.355   1_545  S
Eu2289     O3132   2.355   1_545  S
Eu2290     O2291   2.347       .  S
Eu2290     O2302   2.350       .  S
Eu2290     O2304   2.354       .  S
Eu2290     O2292   2.358       .  S
O2291     Eu3117   2.355       .  S
C2294      C2398   1.436       .  S
C2295      C2338   1.437       .  S
C2296      C2379   1.427       .  S
C2297      C2342   1.434       .  S
C2297      O3110   1.290   1_545  A
C2298      C2412   1.429       .  S
C2299      C2460   1.432       .  S
C2300      C2357   1.429       .  S
H2301      O2302   0.965       .  S
H2303      O2304   0.966       .  S
O2304     Eu3117   2.355       .  S
C2307      C2308   1.205       .  T
C2309      C2310   1.204       .  T
C2311      C2312   1.205       .  T
C2313      C2314   1.201       .  T
C2315      C2316   1.204       .  T
C2317      C2318   1.206       .  T
C2319      C2320   1.208       .  T
C2321      C2322   1.206       .  T
C2323      C2324   1.204       .  T
C2325      C2326   1.204       .  T
C2327      C2328   1.203       .  T
C2329      C2330   1.204       .  T
C2331      C2332   1.206       .  T
C2333      C2334   1.202       .  T
C2335      C2336   1.205       .  T
C2337      C2338   1.207       .  T
C2339      C2340   1.204       .  T
C2341      C2342   1.205       .  T
C2343      C2344   1.203       .  T
C2344      C2739   1.436       .  S
C2345      C2346   1.207       .  T
C2347      C2348   1.205       .  T
C2349      C2350   1.205       .  T
C2351      C2352   1.205       .  T
C2353      C2354   1.203       .  T
C2355      C2710   1.438   1_545  S
C2355      C2356   1.205       .  T
C2357      C2358   1.202       .  T
C2359      C2360   1.208       .  T
C2361      C2362   1.205       .  T
C2363      C2364   1.202       .  T
C2365      C2366   1.203       .  T
C2367      C2368   1.205       .  T
C2369      C2370   1.204       .  T
C2373      C2374   1.201       .  T
C2375      C2376   1.205       .  T
C2377      C2378   1.203       .  T
C2379      C2380   1.201       .  T
C2381      C2382   1.204       .  T
C2383      C2384   1.201       .  T
C2385      C2386   1.205       .  T
C2387      C2388   1.201       .  T
C2389      C2390   1.204       .  T
C2391      C2392   1.208       .  T
C2393      C2394   1.202       .  T
C2394      C2651   1.433       .  S
C2395      C2396   1.204       .  T
C2397      C2398   1.207       .  T
C2399      C2400   1.205       .  T
C2401      C2402   1.203       .  T
C2403      C2404   1.202       .  T
C2405      C2406   1.203       .  T
C2409      C2410   1.206       .  T
C2411      C2412   1.203       .  T
C2413      C2414   1.201       .  T
C2415      C2416   1.206       .  T
C2417      C2418   1.204       .  T
C2419      C2420   1.204       .  T
C2421      C2422   1.204       .  T
C2423      C2424   1.203       .  T
C2425      C2426   1.202       .  T
C2427      C2428   1.207       .  T
C2428      C2588   1.442       .  S
C2429      C2430   1.202       .  T
C2431      C2432   1.205       .  T
C2433      C2434   1.201       .  T
C2435      C3264   1.205   1_545  T
C2436      C3263   1.205       .  T
C2437      C2438   1.202       .  T
C2439      C2440   1.202   1_455  T
C2441      C2442   1.204       .  T
C2443      C2444   1.201       .  T
C2445      C2446   1.206       .  T
C2447      C2448   1.204       .  T
C2449      C2450   1.205       .  T
C2451      C2452   1.207       .  T
C2453      C2454   1.203       .  T
C2455      C2456   1.203       .  T
C2457      C2458   1.207       .  T
C2459      C2460   1.205       .  T
C2461      C2462   1.202       .  T
C2465      C2466   1.207       .  T
C2467      C2468   1.206       .  T
C2469      C2470   1.204       .  T
C2471      C3300   1.205       .  T
C2472      C3299   1.205   1_545  T
C2473      C2474   1.203       .  T
C2475      C2476   1.206       .  T
C2477      C2478   1.205       .  T
C2479      C2485   1.439       .  S
C2479      C2480   1.206       .  T
C2481      C2482   1.205       .  T
C2483      C2484   1.203       .  T
C2485      C2486   1.400       .  A
C2485      C2490   1.403       .  A
C2486      C2487   1.400       .  A
C2486      H2491   1.085       .  S
C2487      C2488   1.399       .  A
C2487      C3311   1.434       .  S
C2488      C2489   1.399       .  A
C2488      H2492   1.085       .  S
C2489      C2490   1.403       .  A
C2489      C3309   1.438       .  S
C2490      H2493   1.084       .  S
C2494      C2499   1.403       .  A
C2494      C3303   1.441       .  S
C2495      C2496   1.400       .  A
C2495      H2500   1.085       .  S
C2496      C2497   1.398       .  A
C2496      C3312   1.434       .  S
C2497      C2498   1.398       .  A
C2497      H2501   1.085       .  S
C2498      C3305   1.438       .  S
C2499      H2502   1.084       .  S
C2503      C2504   1.400       .  A
C2503      C2508   1.402       .  A
C2503      C3299   1.439       .  S
C2504      C2505   1.400       .  A
C2504      H2509   1.085       .  S
C2505      C2506   1.398       .  A
C2505      C3301   1.434       .  S
C2506      C2507   1.398       .  A
C2506      H2510   1.085       .  S
C2507      C2508   1.402       .  A
C2507      C3297   1.436       .  S
C2508      H2511   1.085       .  S
C2512      C2513   1.404       .  A
C2512      C2517   1.401       .  A
C2512      C3294   1.442       .  S
C2513      C2514   1.404       .  A
C2513      H2518   1.084       .  S
C2514      C2515   1.398       .  A
C2514      C3295   1.439       .  S
C2515      C2516   1.398       .  A
C2515      H2519   1.085       .  S
C2516      C2517   1.400       .  A
C2516      C3302   1.435       .  S
C2517      H2520   1.085       .  S
C2521      C2522   1.401       .  A
C2521      C2526   1.401       .  A
C2521      C3287   1.438       .  S
C2522      C2523   1.401       .  A
C2522      H2527   1.085       .  S
C2523      C2524   1.397       .  A
C2523      C3291   1.433       .  S
C2524      C2525   1.396       .  A
C2524      H2528   1.085       .  S
C2525      C2526   1.401       .  A
C2525      C3289   1.433       .  S
C2526      H2529   1.085       .  S
C2530      C2531   1.402       .  A
C2530      C2535   1.396       .  A
C2530      C3283   1.435       .  S
C2531      C2532   1.403       .  A
C2531      H2536   1.084       .  S
C2532      C2533   1.402       .  A
C2532      C3286   1.441       .  S
C2533      C2534   1.401       .  A
C2534      C2535   1.396       .  A
C2534      C3292   1.433       .  S
C2535      H2538   1.085       .  S
C2539      C2540   1.404   1_554  A
C2539      C2544   1.401       .  A
C2539      C3279   1.441       .  S
C2540      C2541   1.404       .  A
C2540      H2545   1.084       .  S
C2541      C2542   1.398       .  A
C2541      C3277   1.438       .  S
C2542      C2543   1.398   1_556  A
C2542      H2546   1.085       .  S
C2543      C2544   1.400       .  A
C2543      C3282   1.435       .  S
C2544      H2547   1.085       .  S
C2548      C2549   1.401       .  A
C2548      C2553   1.403       .  A
C2548      C3274   1.440       .  S
C2549      C2550   1.401       .  A
C2549      H2554   1.085       .  S
C2550      C2551   1.398       .  A
C2550      C3281   1.435       .  S
C2551      C2552   1.398       .  A
C2551      H2555   1.085       .  S
C2552      C2553   1.402       .  A
C2552      C3276   1.437       .  S
C2553      H2556   1.085       .  S
C2557      C2558   1.400   1_655  A
C2557      C2562   1.401       .  A
C2557      C3269   1.437       .  S
C2558      H2563   1.085       .  S
C2559      C2560   1.397       .  A
C2559      C3271   1.431       .  S
C2560      H2564   1.085       .  S
C2561      C2562   1.400   1_455  A
C2561      C3267   1.433       .  S
C2562      H2565   1.085       .  S
C2566      C2567   1.403       .  A
C2566      C2571   1.400       .  A
C2566      C3264   1.438       .  S
C2567      C2568   1.403       .  A
C2567      H2572   1.084       .  S
C2568      C2569   1.396       .  A
C2568      C3265   1.434       .  S
C2569      C2570   1.395       .  A
C2569      H2573   1.085       .  S
C2570      C2571   1.399       .  A
C2570      C3272   1.431       .  S
C2571      H2574   1.085       .  S
C2575      C2576   1.401       .  A
C2575      C2580   1.402       .  A
C2575      C3259   1.439       .  S
C2576      C2577   1.401       .  A
C2576      H2581   1.085       .  S
C2577      C2578   1.396       .  A
C2577      C3261   1.432       .  S
C2578      C2579   1.396       .  A
C2578      H2582   1.085       .  S
C2579      C2580   1.401       .  A
C2579      C3258   1.434       .  S
C2580      H2583   1.085       .  S
C2584      C2585   1.395       .  A
C2584      C2589   1.403       .  A
C2584      C3254   1.434       .  S
C2585      C2586   1.395       .  A
C2585      H2590   1.085       .  S
C2586      C2587   1.401       .  A
C2586      C3262   1.432       .  S
C2587      C2588   1.402       .  A
C2587      H2591   1.085       .  S
C2588      C2589   1.403       .  A
C2589      H2592   1.084       .  S
C2593      C2594   1.400       .  A
C2593      C2598   1.401       .  A
C2594      C2595   1.400       .  A
C2594      H2599   1.085       .  S
C2595      C2596   1.399       .  A
C2595      C3251   1.435       .  S
C2596      C2597   1.399       .  A
C2596      H2600   1.085       .  S
C2597      C2598   1.401       .  A
C2597      C3249   1.437       .  S
C2598      H2601   1.085       .  S
C2602      C2603   1.403       .  A
C2602      C3244   1.440       .  S
C2603      H2608   1.085       .  S
C2604      C2605   1.398       .  A
C2604      C3245   1.437       .  S
C2605      C2606   1.398       .  A
C2605      H2609   1.085       .  S
C2606      C2607   1.400       .  A
C2606      C3252   1.434       .  S
C2607      H2610   1.085       .  S
C2611      C2612   1.403       .  A
C2611      C2616   1.397       .  A
C2611      C3239   1.435       .  S
C2612      C2613   1.403       .  A
C2612      H2617   1.084       .  S
C2613      C2614   1.400       .  A
C2613      C3237   1.440       .  S
C2614      C2615   1.400       .  A
C2614      H2618   1.085       .  S
C2615      C2616   1.396       .  A
C2615      C3241   1.432       .  S
C2616      H2619   1.085       .  S
C2620      C2621   1.401       .  A
C2620      C2625   1.400       .  A
C2620      C3236   1.438       .  S
C2621      C2622   1.401       .  A
C2621      H2626   1.085       .  S
C2622      C2623   1.397       .  A
C2622      C3234   1.434       .  S
C2623      C2624   1.397       .  A
C2623      H2627   1.085       .  S
C2624      C2625   1.400       .  A
C2624      C3242   1.432       .  S
C2625      H2628   1.085       .  S
C2629      C2630   1.401       .  A
C2629      C2634   1.402       .  A
C2629      C3227   1.438       .  S
C2630      C2631   1.401       .  A
C2630      H2635   1.085       .  S
C2631      C2632   1.397       .  A
C2631      C3232   1.433       .  S
C2632      C2633   1.396       .  A
C2632      H2636   1.085       .  S
C2633      C2634   1.401       .  A
C2633      C3230   1.434       .  S
C2634      H2637   1.085       .  S
C2638      C2639   1.401       .  A
C2638      C2643   1.404       .  A
C2638      C3225   1.442       .  S
C2639      C2640   1.401       .  A
C2639      H2644   1.085       .  S
C2640      C2641   1.396       .  A
C2640      C3231   1.433       .  S
C2641      C2642   1.396       .  A
C2641      H2645   1.085       .  S
C2642      C2643   1.404       .  A
C2642      C3223   1.437       .  S
C2643      H2646   1.084       .  S
C2647      C2648   1.404   1_554  A
C2647      C2652   1.402       .  A
C2647      C3219   1.443       .  S
C2648      C2649   1.404       .  A
C2648      H2653   1.084       .  S
C2649      C2650   1.396       .  A
C2649      C3217   1.437       .  S
C2650      C2651   1.396   1_556  A
C2650      H2654   1.085       .  S
C2651      C2652   1.401       .  A
C2656      C2657   1.401       .  A
C2656      C2661   1.402       .  A
C2656      C3214   1.439       .  S
C2657      C2658   1.401       .  A
C2657      H2662   1.085       .  S
C2658      C2659   1.396       .  A
C2658      C3216   1.432       .  S
C2659      C2660   1.396       .  A
C2659      H2663   1.085       .  S
C2660      C2661   1.402       .  A
C2660      C3221   1.433       .  S
C2661      H2664   1.084       .  S
C2665      C2666   1.400       .  A
C2665      C2670   1.400       .  A
C2665      C3210   1.436       .  S
C2666      C2667   1.400       .  A
C2666      H2671   1.085       .  S
C2667      C2668   1.397       .  A
C2667      C3211   1.432       .  S
C2668      C2669   1.397       .  A
C2668      H2672   1.085       .  S
C2669      C2670   1.400       .  A
C2669      C3208   1.432       .  S
C2670      H2673   1.085       .  S
C2674      C2675   1.403       .  A
C2674      C2679   1.400       .  A
C2675      C2676   1.402       .  A
C2675      H2680   1.084       .  S
C2676      C2677   1.397       .  A
C2676      C3206   1.436       .  S
C2677      C2678   1.397       .  A
C2677      H2681   1.085       .  S
C2678      C2679   1.400       .  A
C2678      C3212   1.432       .  S
C2679      H2682   1.085       .  S
C2683      C2684   1.400       .  A
C2683      C2688   1.404       .  A
C2683      C3199   1.442       .  S
C2684      C2685   1.400       .  A
C2684      H2689   1.085       .  S
C2685      C2686   1.397       .  A
C2685      C3201   1.432       .  S
C2686      C2687   1.397       .  A
C2686      H2690   1.085       .  S
C2687      C2688   1.404       .  A
C2687      C3198   1.437       .  S
C2688      H2691   1.084       .  S
C2692      C2693   1.400       .  A
C2692      C2697   1.402       .  A
C2692      C3195   1.439       .  S
C2693      H2698   1.085       .  S
C2694      C2695   1.397       .  A
C2694      C3202   1.432       .  S
C2695      H2699   1.085       .  S
C2696      C2697   1.402       .  A
C2696      C3194   1.434       .  S
C2697      H2700   1.085       .  S
C2701      C2702   1.397       .  A
C2701      C2706   1.404       .  A
C2701      C3189   1.438       .  S
C2702      C2703   1.397       .  A
C2702      H2707   1.085       .  S
C2703      C2704   1.400       .  A
C2703      C3192   1.433       .  S
C2704      C2705   1.401       .  A
C2704      H2708   1.085       .  S
C2705      C2706   1.405       .  A
C2705      C3187   1.443       .  S
C2706      H2709   1.084       .  S
C2710      C2715   1.400       .  A
C2711      H2716   1.085       .  S
C2712      C2713   1.397       .  A
C2712      C3186   1.434       .  S
C2713      C2714   1.397       .  A
C2713      H2717   1.085       .  S
C2714      C2715   1.400       .  A
C2714      C3191   1.433       .  S
C2715      H2718   1.085       .  S
C2719      C2720   1.399       .  A
C2719      C2724   1.402       .  A
C2719      C3180   1.438       .  S
C2720      C2721   1.399       .  A
C2720      H2725   1.085       .  S
C2721      C2722   1.400       .  A
C2721      C3182   1.435       .  S
C2722      C2723   1.400       .  A
C2722      H2726   1.085       .  S
C2723      C2724   1.402       .  A
C2723      C3178   1.438       .  S
C2724      H2727   1.085       .  S
C2728      C2729   1.401       .  A
C2728      C2733   1.403       .  A
C2728      C3173   1.441       .  S
C2729      H2734   1.085       .  S
C2730      C2731   1.398       .  A
C2730      C3181   1.435       .  S
C2731      H2735   1.085       .  S
C2732      C2733   1.403       .  A
C2732      C3176   1.438       .  S
C2733      H2736   1.084       .  S
C2737      C2738   1.401       .  A
C2737      C2742   1.402       .  A
C2737      C3169   1.439       .  S
C2738      C2739   1.401       .  A
C2739      C2740   1.399       .  A
C2740      C2741   1.398       .  A
C2740      H2744   1.085       .  S
C2741      C2742   1.402       .  A
C2741      C3167   1.437       .  S
C2742      H2745   1.085       .  S
C2746      C2747   1.401       .  A
C2746      C2751   1.404       .  A
C2746      C3165   1.442       .  S
C2747      C2748   1.401       .  A
C2747      H2752   1.085       .  S
C2748      C2749   1.398       .  A
C2748      C3171   1.436       .  S
C2749      C2750   1.398       .  A
C2749      H2753   1.085       .  S
C2750      C2751   1.404       .  A
C2750      C3163   1.439       .  S
C2751      H2754   1.084       .  S
C2755      C2756   1.403       .  A
C2755      C2760   1.401       .  A
C2755      C3160   1.440       .  S
C2756      C2757   1.403       .  A
C2756      H2761   1.084       .  S
C2757      C2758   1.397       .  A
C2757      C3157   1.437       .  S
C2758      C2759   1.397       .  A
C2758      H2762   1.085       .  S
C2759      C2760   1.400       .  A
C2759      C3161   1.434       .  S
C2760      H2763   1.085       .  S
C2764      C2769   1.401       .  A
C2764      C3154   1.437       .  S
C2765      C2766   1.401       .  A
C2765      H2770   1.085       .  S
C2766      C2767   1.398       .  A
C2766      C3162   1.434       .  S
C2767      C2768   1.398       .  A
C2767      H2771   1.085       .  S
C2768      C3155   1.435       .  S
C2769      H2772   1.085       .  S
C2773      C2774   1.402       .  A
C2773      C2778   1.404   1_554  A
C2773      C3147   1.443       .  S
C2774      C2775   1.402       .  A
C2774      H2779   1.085       .  S
C2775      C2776   1.398   1_554  A
C2775      C3152   1.436       .  S
C2776      C2777   1.398       .  A
C2776      H2780   1.085       .  S
C2777      C2778   1.404       .  A
C2777      C3149   1.440       .  S
C2778      H2781   1.084       .  S
C2782      C2783   1.402       .  A
C2782      C2787   1.403       .  A
C2782      C3146   1.440       .  S
C2783      C2784   1.402       .  A
C2783      H2788   1.085       .  S
C2784      C2785   1.398       .  A
C2785      C2786   1.398       .  A
C2785      H2789   1.085       .  S
C2786      C2787   1.402       .  A
C2786      C3143   1.437       .  S
C2787      H2790   1.085       .  S
C2791      C2792   1.399       .  A
C2791      C2796   1.403       .  A
C2791      C3140   1.439       .  S
C2792      C2793   1.399       .  A
C2792      H2797   1.085       .  S
C2793      C2794   1.398       .  A
C2793      C3141   1.432       .  S
C2794      C2795   1.398       .  A
C2794      H2798   1.085       .  S
C2795      C2796   1.403       .  A
C2795      C3137   1.438       .  S
C2796      H2799   1.084       .  S
C2800      C2805   1.403       .  A
C2800      C3134   1.437       .  S
C2801      C2802   1.398       .  A
C2801      H2806   1.085       .  S
C2802      C3142   1.432       .  S
C2803      C2804   1.399   1_455  A
C2803      H2807   1.085       .  S
C2804      C2805   1.404       .  A
C2804      C3135   1.439       .  S
C2805      H2808   1.084       .  S
O2809      C2820   1.291       .  A
O2809     Eu2845   2.468       .  S
O2810      C2821   1.288       .  A
O2810     Eu2844   2.450       .  S
O2811      C2822   1.287       .  A
O2811     Eu2817   2.446       .  S
O2812      C2823   1.290       .  A
O2812     Eu2817   2.461       .  S
O2813      C2823   1.288       .  A
O2813     Eu2847   2.452       .  S
O2814      C2822   1.291       .  A
O2814     Eu2846   2.466       .  S
O2815      C2821   1.291       .  A
O2815     Eu2817   2.469       .  S
O2816      C2820   1.288       .  A
O2816     Eu2817   2.448       .  S
Eu2817     O2827   2.354       .  S
Eu2817     O2819   2.356       .  S
Eu2817     O2818   2.344       .  S
Eu2817     O2825   2.354       .  S
O2818     Eu2847   2.353       .  S
O2818     Eu2844   2.348       .  S
O2819     Eu2845   2.347       .  S
O2819     Eu2846   2.349       .  S
C2820      C3310   1.433       .  S
C2821      C3243   1.434       .  S
C2822      C3300   1.433       .  S
C2823      C3179   1.433       .  S
H2824      O2825   0.965       .  S
O2825     Eu2846   2.345       .  S
O2825     Eu2844   2.362       .  S
H2826      O2827   0.966       .  S
O2827     Eu2845   2.355       .  S
O2827     Eu2847   2.353       .  S
O2828      C2851   1.292       .  A
O2828     Eu2844   2.473       .  S
O2829      C2852   1.288       .  A
O2829     Eu2845   2.452       .  S
O2830      C2853   1.292       .  A
O2830     Eu2846   2.470       .  S
O2831      C2854   1.287       .  A
O2831     Eu2847   2.446       .  S
O2832      C2855   1.290       .  A
O2832     Eu2847   2.460       .  S
O2833      C2856   1.288       .  A
O2833     Eu2846   2.448       .  S
O2834      C2857   1.293       .  A
O2834     Eu2848   2.474       .  S
O2835      C2858   1.289       .  A
O2835     Eu2848   2.456       .  S
O2836      C2857   1.287       .  A
O2836     Eu2846   2.443       .  S
O2837      C2858   1.291       .  A
O2837     Eu2847   2.469       .  S
O2838      C2853   1.286       .  A
O2838     Eu2844   2.439       .  S
O2839      C2856   1.292       .  A
O2839     Eu2845   2.470       .  S
O2840      C2855   1.287       .  A
O2840     Eu2845   2.446       .  S
O2841      C2854   1.291       .  A
O2841     Eu2844   2.464       .  S
O2842      C2851   1.287       .  A
O2842     Eu2848   2.441       .  S
O2843      C2852   1.290       .  A
O2843     Eu2848   2.458       .  S
Eu2844     O2862   2.344       .  S
Eu2844     O2850   2.350       .  S
Eu2845     O2849   2.357       .  S
Eu2845     O2860   2.354       .  S
Eu2846     O2860   2.361       .  S
Eu2846     O2850   2.350       .  S
Eu2847     O2849   2.348       .  S
Eu2847     O2862   2.353       .  S
Eu2848     O2849   2.351       .  S
Eu2848     O2860   2.347       .  S
Eu2848     O2862   2.360       .  S
Eu2848     O2850   2.349       .  S
C2851      C3278   1.433       .  S
C2852      C3248   1.432       .  S
C2853      C3218   1.431       .  S
C2854      C3139   1.433       .  S
C2855      C3233   1.429       .  S
C2856      C3136   1.433       .  S
C2857      C3150   1.434       .  S
C2858      C3293   1.436       .  S
H2859      O2860   0.965       .  S
H2861      O2862   0.965       .  S
O2863      C2874   1.292       .  A
O2863     Eu2899   2.471   1_556  S
O2864      C2875   1.289       .  A
O2864     Eu2898   2.456       .  S
O2865      C2876   1.291       .  A
O2866      C2877   1.288       .  A
O2866     Eu2871   2.452       .  S
O2867      C2877   1.292       .  A
O2867     Eu2901   2.470       .  S
O2868      C2876   1.287       .  A
O2869     Eu2871   2.460   1_455  S
O2870      C2874   1.287       .  A
O2870     Eu2871   2.445   1_556  S
Eu2871     O2881   2.358       .  S
Eu2871     O2873   2.352   1_554  S
Eu2871     O2872   2.351       .  S
O2872     Eu2901   2.350       .  S
O2873     Eu2899   2.352   1_556  S
C2874      C3296   1.434       .  S
C2875      C3145   1.435       .  S
C2876      C3246   1.431       .  S
C2877      C3280   1.435       .  S
H2878      O2879   0.965       .  S
O2879     Eu2898   2.350       .  S
H2880      O2881   0.965       .  S
O2881     Eu2899   2.347       .  S
O2881     Eu2901   2.349       .  S
O2882      C2905   1.291       .  A
O2883      C2906   1.289       .  A
O2884      C2907   1.289       .  A
O2884     Eu2900   2.457       .  S
O2885      C2908   1.290       .  A
O2885     Eu2901   2.461       .  S
O2886      C2909   1.289       .  A
O2886     Eu2901   2.456       .  S
O2887      C2910   1.292       .  A
O2887     Eu2900   2.469   1_556  S
O2888      C2911   1.288       .  A
O2888     Eu2902   2.453       .  S
O2890      C2911   1.290       .  A
O2890     Eu2900   2.462       .  S
O2891      C2912   1.287       .  A
O2891     Eu2901   2.443       .  S
O2892     Eu2898   2.470       .  S
O2894      C2909   1.289       .  A
O2894     Eu2899   2.457       .  S
O2895     Eu2898   2.449       .  S
O2896      C2905   1.287       .  A
O2896     Eu2902   2.442       .  S
O2897      C2906   1.291       .  A
Eu2899     O2903   2.349       .  S
Eu2900     O2914   2.347       .  S
Eu2900     O2904   2.349       .  S
Eu2901     O2903   2.355       .  S
Eu2901     O2916   2.355       .  S
Eu2902     O2914   2.350       .  S
Eu2902     O2904   2.356       .  S
C2905      C3257   1.429       .  S
C2906      C3148   1.438       .  S
C2907      C3220   1.437       .  S
C2908      C3156   1.430       .  S
C2909      C3213   1.433       .  S
C2910      C3133   1.432       .  S
C2911      C3273   1.435       .  S
C2912      C3193   1.429       .  S
H2913      O2914   0.965       .  S
H2915      O2916   0.966       .  S
O2917      C2928   1.290       .  A
O2917     Eu2953   2.461       .  S
O2918      C2929   1.288       .  A
O2918     Eu2952   2.454       .  S
O2919      C2930   1.289       .  A
O2919     Eu2925   2.454       .  S
O2920      C2931   1.292       .  A
O2920     Eu2925   2.469       .  S
O2921      C2931   1.286       .  A
O2921     Eu2955   2.439       .  S
O2922      C2930   1.289       .  A
O2922     Eu2954   2.456       .  S
O2923      C2929   1.292       .  A
O2923     Eu2925   2.474       .  S
O2924      C2928   1.287       .  A
O2924     Eu2925   2.442       .  S
Eu2925     O2935   2.357       .  S
Eu2925     O2927   2.356       .  S
Eu2925     O2926   2.346       .  S
Eu2925     O2933   2.353       .  S
O2926     Eu2955   2.358       .  S
O2926     Eu2952   2.347       .  S
O2927     Eu2953   2.346       .  S
O2927     Eu2954   2.348       .  S
C2928      C3290   1.428       .  S
C2929      C3188   1.438       .  S
C2930      C3270   1.432       .  S
C2931      C3229   1.429       .  S
H2932      O2933   0.965       .  S
O2933     Eu2954   2.349       .  S
O2933     Eu2952   2.359       .  S
H2934      O2935   0.966       .  S
O2935     Eu2953   2.353       .  S
O2935     Eu2955   2.355       .  S
O2936      C2959   1.291       .  A
O2936     Eu2952   2.465       .  S
O2937      C2960   1.288       .  A
O2937     Eu2953   2.449       .  S
O2938      C2961   1.292       .  A
O2938     Eu2954   2.469       .  S
O2939      C2962   1.288       .  A
O2939     Eu2955   2.453       .  S
O2940      C2963   1.291       .  A
O2940     Eu2955   2.467       .  S
O2941      C2964   1.288       .  A
O2941     Eu2954   2.453       .  S
O2942      C2965   1.292       .  A
O2942     Eu2956   2.469       .  S
O2943      C2966   1.287       .  A
O2943     Eu2956   2.447       .  S
O2944      C2965   1.286       .  A
O2944     Eu2954   2.439       .  S
O2945      C2966   1.291       .  A
O2945     Eu2955   2.469       .  S
O2946      C2961   1.286       .  A
O2946     Eu2952   2.437       .  S
O2947      C2964   1.291       .  A
O2947     Eu2953   2.464       .  S
O2948      C2963   1.287       .  A
O2948     Eu2953   2.446       .  S
O2949      C2962   1.289       .  A
O2949     Eu2952   2.454       .  S
O2950      C2959   1.285       .  A
O2950     Eu2956   2.434       .  S
O2951      C2960   1.290       .  A
O2951     Eu2956   2.459       .  S
Eu2952     O2970   2.348       .  S
Eu2952     O2958   2.347       .  S
Eu2953     O2957   2.353       .  S
Eu2953     O2968   2.352       .  S
Eu2954     O2968   2.360       .  S
Eu2954     O2958   2.345       .  S
Eu2955     O2957   2.344       .  S
Eu2955     O2970   2.350       .  S
Eu2956     O2957   2.347       .  S
Eu2956     O2968   2.343       .  S
Eu2956     O2970   2.361       .  S
Eu2956     O2958   2.346       .  S
C2959      C3253   1.428       .  S
C2960      C3184   1.432       .  S
C2961      C3158   1.431       .  S
C2962      C3209   1.431       .  S
C2963      C3168   1.432       .  S
C2964      C3203   1.433       .  S
C2965      C3197   1.431       .  S
C2966      C3263   1.433       .  S
H2967      O2968   0.966       .  S
H2969      O2970   0.965       .  S
O2971      C2982   1.287       .  A
O2971     Eu3007   2.446       .  S
O2972      C2983   1.292       .  A
O2972     Eu3006   2.473       .  S
O2973      C2984   1.288       .  A
O2973     Eu2979   2.450       .  S
O2974      C2985   1.292       .  A
O2974     Eu2979   2.470       .  S
O2975      C2985   1.287       .  A
O2975     Eu3009   2.443       .  S
O2976      C2984   1.292       .  A
O2976     Eu3008   2.470       .  S
O2977      C2983   1.286       .  A
O2977     Eu2979   2.439       .  S
O2978      C2982   1.291       .  A
O2978     Eu2979   2.465       .  S
Eu2979     O2989   2.346       .  S
Eu2979     O2981   2.347       .  S
Eu2979     O2980   2.351       .  S
Eu2979     O2987   2.360       .  S
O2980     Eu3009   2.350       .  S
O2980     Eu3006   2.351       .  S
O2981     Eu3007   2.356       .  S
O2981     Eu3008   2.345       .  S
C2982      C3308   1.434       .  S
C2983      C3224   1.432       .  S
C2984      C3238   1.434       .  S
C2985      C3164   1.434       .  S
H2986      O2987   0.965       .  S
O2987     Eu3008   2.350       .  S
O2987     Eu3006   2.345       .  S
H2988      O2989   0.965       .  S
O2989     Eu3007   2.353       .  S
O2989     Eu3009   2.359       .  S
O2990      C3013   1.288       .  A
O2990     Eu3006   2.453       .  S
O2991      C3014   1.290       .  A
O2991     Eu3007   2.463       .  S
O2992      C3015   1.288       .  A
O2992     Eu3008   2.449       .  S
O2993      C3016   1.291       .  A
O2993     Eu3009   2.466       .  S
O2994      C3017   1.288       .  A
O2994     Eu3009   2.453       .  S
O2995      C3018   1.291       .  A
O2995     Eu3008   2.464       .  S
O2996      C3019   1.291       .  A
O2996     Eu3010   2.467       .  S
O2997      C3020   1.288       .  A
O2997     Eu3010   2.449       .  S
O2998      C3019   1.287       .  A
O2998     Eu3008   2.445       .  S
O2999      C3020   1.290       .  A
O2999     Eu3009   2.460       .  S
O3000      C3015   1.290       .  A
O3000     Eu3006   2.461       .  S
O3001      C3018   1.287       .  A
O3001     Eu3007   2.444       .  S
O3002      C3017   1.292       .  A
O3002     Eu3007   2.471       .  S
O3003      C3016   1.286       .  A
O3003     Eu3006   2.439       .  S
O3004      C3013   1.292       .  A
O3004     Eu3010   2.470       .  S
O3005      C3014   1.288       .  A
O3005     Eu3010   2.449       .  S
Eu3006     O3024   2.361       .  S
Eu3006     O3012   2.348       .  S
Eu3007     O3011   2.344       .  S
Eu3007     O3022   2.354       .  S
Eu3008     O3022   2.354       .  S
Eu3008     O3012   2.355       .  S
Eu3009     O3011   2.349       .  S
Eu3009     O3024   2.348       .  S
Eu3010     O3011   2.357       .  S
Eu3010     O3022   2.353       .  S
Eu3010     O3024   2.354       .  S
Eu3010     O3012   2.346       .  S
C3013      C3304   1.435       .  S
C3014      C3250   1.432       .  S
C3015      C3177   1.433       .  S
C3016      C3284   1.429       .  S
C3017      C3174   1.436       .  S
C3018      C3298   1.431       .  S
C3019      C3138   1.432       .  S
C3020      C3235   1.432       .  S
H3021      O3022   0.966       .  S
H3023      O3024   0.965       .  S
O3025      C3036   1.291       .  A
O3025     Eu3061   2.467       .  S
O3026      C3037   1.288       .  A
O3026     Eu3060   2.452       .  S
O3027      C3038   1.289       .  A
O3027     Eu3033   2.455       .  S
O3028      C3039   1.291       .  A
O3028     Eu3033   2.467       .  S
O3029      C3039   1.287       .  A
O3029     Eu3063   2.446       .  S
O3030      C3038   1.290       .  A
O3030     Eu3062   2.460       .  S
O3031      C3037   1.292       .  A
O3031     Eu3033   2.473       .  S
O3032      C3036   1.287       .  A
O3032     Eu3033   2.445       .  S
Eu3033     O3043   2.356       .  S
Eu3033     O3035   2.357       .  S
Eu3033     O3034   2.348       .  S
Eu3033     O3041   2.352       .  S
O3034     Eu3063   2.357       .  S
O3034     Eu3060   2.350       .  S
O3035     Eu3061   2.346       .  S
O3035     Eu3062   2.348       .  S
C3036      C3275   1.432       .  S
C3037      C3200   1.436       .  S
C3038      C3260   1.434       .  S
C3039      C3144   1.432       .  S
H3040      O3041   0.965       .  S
O3041     Eu3062   2.346       .  S
O3041     Eu3060   2.359       .  S
H3042      O3043   0.966       .  S
O3043     Eu3061   2.354       .  S
O3043     Eu3063   2.357       .  S
O3044      C3067   1.292       .  A
O3044     Eu3060   2.469       .  S
O3045      C3068   1.288       .  A
O3045     Eu3061   2.450       .  S
O3046      C3069   1.291       .  A
O3046     Eu3062   2.466       .  S
O3047      C3070   1.289       .  A
O3047     Eu3063   2.454       .  S
O3048      C3071   1.290       .  A
O3048     Eu3063   2.462       .  S
O3049      C3072   1.288       .  A
O3049     Eu3062   2.451       .  S
O3050      C3073   1.292       .  A
O3050     Eu3064   2.470       .  S
O3051      C3074   1.289       .  A
O3051     Eu3064   2.457       .  S
O3052      C3073   1.286       .  A
O3052     Eu3062   2.439       .  S
O3053      C3074   1.291       .  A
O3053     Eu3063   2.470       .  S
O3054      C3069   1.286       .  A
O3054     Eu3060   2.439       .  S
O3055      C3072   1.291       .  A
O3055     Eu3061   2.467       .  S
O3056      C3071   1.286       .  A
O3056     Eu3061   2.439       .  S
O3057      C3070   1.289       .  A
O3057     Eu3060   2.456       .  S
O3058      C3067   1.285       .  A
O3058     Eu3064   2.431       .  S
O3059      C3068   1.290       .  A
O3059     Eu3064   2.461       .  S
Eu3060     O3078   2.348       .  S
Eu3060     O3066   2.346       .  S
Eu3061     O3065   2.355       .  S
Eu3061     O3076   2.351       .  S
Eu3062     O3076   2.361       .  S
Eu3062     O3066   2.346       .  S
Eu3063     O3065   2.346       .  S
Eu3063     O3078   2.351       .  S
Eu3064     O3065   2.345       .  S
Eu3064     O3076   2.347       .  S
Eu3064     O3078   2.362       .  S
Eu3064     O3066   2.348       .  S
C3067      C3266   1.428       .  S
C3068      C3196   1.433       .  S
C3069      C3205   1.430       .  S
C3070      C3153   1.432       .  S
C3071      C3215   1.427       .  S
C3072      C3159   1.434       .  S
C3073      C3190   1.433       .  S
C3074      C3255   1.437       .  S
H3075      O3076   0.966       .  S
H3077      O3078   0.965       .  S
O3079      C3090   1.292       .  A
O3080      C3091   1.288       .  A
O3081     Eu3087   2.468       .  S
O3082      C3093   1.289       .  A
O3082     Eu3087   2.458       .  S
O3083      C3093   1.291       .  A
O3084      C3092   1.287       .  A
O3085      C3091   1.290       .  A
O3085     Eu3087   2.458       .  S
O3086     Eu3087   2.443       .  S
Eu3087     O3088   2.349       .  S
O3089     Eu3115   2.351       .  S
O3089     Eu3116   2.352       .  S
C3090      C3306   1.433       .  S
C3091      C3228   1.433       .  S
C3092      C3175   1.432       .  S
C3093      C3285   1.436       .  S
O3095     Eu3114   2.347       .  S
H3096      O3097   0.965       .  S
O3097     Eu3117   2.348       .  S
O3098      C3121   1.290       .  A
O3098     Eu3114   2.460       .  S
O3099      C3122   1.289       .  A
O3099     Eu3115   2.455       .  S
O3100      C3123   1.288       .  A
O3101      C3124   1.290       .  A
O3102      C3125   1.289       .  A
O3102     Eu3117   2.454       .  S
O3103      C3126   1.291       .  A
O3103     Eu3116   2.463       .  S
O3104      C3127   1.289       .  A
O3104     Eu3118   2.452       .  S
O3105      C3128   1.291       .  A
O3105     Eu3118   2.465       .  S
O3106      C3127   1.289       .  A
O3106     Eu3116   2.458       .  S
O3107      C3128   1.287       .  A
O3108      C3123   1.291       .  A
O3108     Eu3114   2.470       .  S
O3109      C3126   1.286       .  A
O3109     Eu3115   2.438       .  S
O3110     Eu3115   2.459       .  S
O3111      C3124   1.287       .  A
O3112     Eu3118   2.445       .  S
O3113      C3122   1.292       .  A
O3113     Eu3118   2.470       .  S
Eu3115     O3119   2.349       .  S
Eu3115     O3130   2.358       .  S
Eu3116     O3130   2.347       .  S
Eu3116     O3120   2.349       .  S
Eu3118     O3119   2.347       .  S
Eu3118     O3130   2.350       .  S
Eu3118     O3132   2.354       .  S
Eu3118     O3120   2.358       .  S
C3122      C3226   1.436       .  S
C3123      C3166   1.437       .  S
C3124      C3207   1.427       .  S
C3125      C3170   1.434       .  S
C3126      C3240   1.429       .  S
C3127      C3288   1.432       .  S
C3128      C3185   1.429       .  S
H3129      O3130   0.965       .  S
H3131      O3132   0.966       .  S
C3135      C3136   1.205       .  T
C3137      C3138   1.204       .  T
C3139      C3140   1.205       .  T
C3141      C3142   1.201       .  T
C3143      C3144   1.204       .  T
C3145      C3146   1.206       .  T
C3147      C3148   1.208       .  T
C3149      C3150   1.206       .  T
C3151      C3152   1.204       .  T
C3153      C3154   1.204       .  T
C3155      C3156   1.203       .  T
C3157      C3158   1.204       .  T
C3159      C3160   1.206       .  T
C3161      C3162   1.202       .  T
C3163      C3164   1.205       .  T
C3165      C3166   1.207       .  T
C3167      C3168   1.204       .  T
C3169      C3170   1.205       .  T
C3171      C3172   1.203       .  T
C3173      C3174   1.207       .  T
C3175      C3176   1.205       .  T
C3177      C3178   1.205       .  T
C3179      C3180   1.205       .  T
C3181      C3182   1.203       .  T
C3183      C3184   1.205       .  T
C3185      C3186   1.202       .  T
C3187      C3188   1.208       .  T
C3189      C3190   1.205       .  T
C3191      C3192   1.202       .  T
C3193      C3194   1.203       .  T
C3195      C3196   1.205       .  T
C3197      C3198   1.204       .  T
C3201      C3202   1.201       .  T
C3203      C3204   1.205       .  T
C3205      C3206   1.203       .  T
C3207      C3208   1.201       .  T
C3209      C3210   1.204       .  T
C3211      C3212   1.201       .  T
C3213      C3214   1.205       .  T
C3215      C3216   1.201       .  T
C3217      C3218   1.204       .  T
C3219      C3220   1.208       .  T
C3221      C3222   1.202       .  T
C3223      C3224   1.204       .  T
C3225      C3226   1.207       .  T
C3227      C3228   1.205       .  T
C3229      C3230   1.203       .  T
C3231      C3232   1.202       .  T
C3233      C3234   1.203       .  T
C3237      C3238   1.206       .  T
C3239      C3240   1.203       .  T
C3241      C3242   1.201       .  T
C3243      C3244   1.206       .  T
C3245      C3246   1.204       .  T
C3247      C3248   1.204       .  T
C3249      C3250   1.204       .  T
C3251      C3252   1.203       .  T
C3253      C3254   1.202       .  T
C3255      C3256   1.207       .  T
C3257      C3258   1.202       .  T
C3259      C3260   1.205       .  T
C3261      C3262   1.201       .  T
C3265      C3266   1.202       .  T
C3267      C3268   1.202   1_455  T
C3269      C3270   1.204       .  T
C3271      C3272   1.201       .  T
C3273      C3274   1.206       .  T
C3275      C3276   1.204       .  T
C3277      C3278   1.205       .  T
C3279      C3280   1.207       .  T
C3281      C3282   1.203       .  T
C3283      C3284   1.203       .  T
C3285      C3286   1.207       .  T
C3287      C3288   1.205       .  T
C3289      C3290   1.202       .  T
C3293      C3294   1.207       .  T
C3295      C3296   1.206       .  T
C3297      C3298   1.204       .  T
C3301      C3302   1.203       .  T
C3303      C3304   1.206       .  T
C3305      C3306   1.205       .  T
C3307      C3308   1.206       .  T
C3309      C3310   1.205       .  T
C3311      C3312   1.203       .  T
