geometry optimzed in LAMMPS
_audit_creation_date              2020-11-30 
_audit_creation_method            'lammps2cif' 
_symmetry_space_group_name_H-M    'P1' 
_symmetry_Int_Tables_number       1 
_symmetry_cell_setting            triclinic 
loop_ 
_symmetry_equiv_pos_as_xyz 
  x,y,z 
_cell_length_a                    48.56991869 
_cell_length_b                    48.544511582750474 
_cell_length_c                    34.67675020552609 
_cell_angle_alpha                 89.8775729038351 
_cell_angle_beta                  90.11511582234453 
_cell_angle_gamma                 120.01736664147742 
loop_ 
_atom_site_label 
_atom_site_type_symbol 
_atom_site_fract_x 
_atom_site_fract_y 
_atom_site_fract_z 
_atom_site_charge 
Fe1        Fe  0.21278008  0.36710250  0.00194212     1.65800
Fe2        Fe  0.13494229  0.34640162  0.50144427     1.73200
Fe3        Fe  0.15453322  0.28738554  0.50103700     1.54400
O4          O  0.18612870  0.29241307  0.45762099    -0.78800
O5          O  0.10736146  0.31458487  0.04513638    -0.77200
O6          O  0.22463639  0.34343827  0.45841880    -0.81400
O7          O  0.22474447  0.34395141  0.04323410    -0.76200
O8          O  0.11937069  0.27583868  0.46003401    -0.78000
O9          O  0.15705098  0.38180625  0.04294052    -0.80700
C10         C  0.21309177  0.31556316  0.05525757     1.00000
C11         C  0.21263895  0.31510488  0.44605548     1.07500
O12         O  0.16768889  0.33328069  0.50125508    -1.09700
O13         O  0.15791018  0.38149809  0.46007824    -0.72100
O14         O  0.20891835  0.39438631  0.45975494    -0.75600
O15         O  0.18650111  0.29289228  0.04383474    -0.76300
C16         C  0.18635498  0.39850457  0.44850990     0.98900
O17         O  0.20781547  0.39389040  0.04507231    -0.74300
O18         O  0.10756470  0.31474972  0.45845692    -0.79500
C19         C  0.10303647  0.28757363  0.05541157     1.01600
C20         C  0.10307579  0.28784724  0.44765212     1.07500
O21         O  0.11932419  0.27576256  0.04234657    -0.75100
C22         C  0.18527511  0.39826075  0.05555167     1.05800
Fe23       Fe  0.36674869  0.15537200  0.00072225     1.65800
Fe24       Fe  0.28785934  0.13444397  0.00192084     1.73200
Fe25       Fe  0.34588313  0.21342708  0.00228881     1.54400
O26         O  0.38169762  0.22552055  0.04254961    -0.78800
O27         O  0.27490830  0.15803422  0.46156253    -0.77200
O28         O  0.39328654  0.18644875  0.04466679    -0.81400
O29         O  0.39173082  0.18444059  0.45540288    -0.76200
O30         O  0.31483998  0.20799047  0.04655746    -0.78000
O31         O  0.29184543  0.10810413  0.45616405    -0.80700
C32         C  0.39717194  0.21200824  0.44592301     1.00000
C33         C  0.39778175  0.21339964  0.05534569     1.07500
O34         O  0.33350053  0.16773848  0.00168607    -1.09700
O35         O  0.29323374  0.10790468  0.04526408    -0.72100
O36         O  0.34373761  0.11927101  0.04105187    -0.75600
O37         O  0.38198320  0.22467518  0.45987971    -0.76300
C38         C  0.31579088  0.10311013  0.05458539     0.98900
O39         O  0.34171150  0.11761105  0.46105385    -0.74300
O40         O  0.27569684  0.15744375  0.04304587    -0.79500
C41         C  0.28734251  0.18587179  0.44746793     1.01600
C42         C  0.28783103  0.18535567  0.05672887     1.07500
O43         O  0.31509562  0.20794667  0.45620098    -0.75100
C44         C  0.31384173  0.10242608  0.44709099     1.05800
C45         C  0.47063375  0.99794290  0.08872613     0.05100
C46         C  0.99868267  0.02852320  0.09602579     0.05100
C47         C  0.02865594  0.03061088  0.09594186     0.05100
C48         C  0.03078553  0.00274278  0.09494744     0.05100
C49         C  0.00299817  0.47295768  0.09223293     0.05100
C50         C  0.47084031  0.47250808  0.15208108     0.05100
C51         C  0.28009312  0.47490414  0.14386528     0.83000
N52         N  0.30863715  0.47664697  0.14856318    -0.75300
C53         C  0.33241159  0.99488941  0.10990955     0.85500
N54         N  0.33176733  0.02157364  0.09998250    -0.75200
C55         C  0.30553105  0.02385458  0.10688454     0.85600
N56         N  0.27963725  0.99907573  0.12382096    -0.76900
C57         C  0.19619829  0.47764232  0.10746522     0.83000
N58         N  0.22222091  0.00064769  0.12031362    -0.75300
C59         C  0.22213043  0.02751765  0.13155559     0.85500
N60         N  0.19561840  0.02973369  0.12633704    -0.75200
C61         C  0.16940149  0.00548875  0.10977459     0.85600
N62         N  0.17000010  0.47996286  0.10027606    -0.76900
C63         C  0.22049763  0.19486282  0.11368022     0.83000
N64         N  0.19193573  0.16814883  0.10870512    -0.75300
C65         C  0.16485516  0.16747318  0.11962348     0.85500
N66         N  0.16614221  0.19359839  0.13540110    -0.75200
C67         C  0.19455285  0.22054231  0.14038265     0.85600
N68         N  0.22182891  0.22117829  0.12952240    -0.76900
C69         C  0.47213904  0.19273044  0.13637600     0.83000
N70         N  0.99983825  0.22129431  0.12670457    -0.75300
C71         C  0.02471506  0.21985943  0.11059912     0.85500
N72         N  0.02269664  0.19123638  0.10562438    -0.75200
C73         C  0.99626692  0.16416149  0.11664622     0.85600
N74         N  0.46996442  0.16421486  0.12943189    -0.76900
C75         C  0.27950759  0.30610690  0.11613323     0.83000
N76         N  0.27892499  0.27882661  0.12711574    -0.75300
C77         C  0.30534482  0.28011717  0.14262500     0.85500
N78         N  0.33220998  0.30867697  0.14707148    -0.75200
C79         C  0.33286397  0.33579000  0.13602932     0.85600
N80         N  0.30660563  0.33451331  0.12058363    -0.76900
C81         C  0.02791877  0.30695864  0.13291114     0.83000
N82         N  0.00106984  0.27979585  0.12210334    -0.75300
C83         C  0.47339528  0.27935855  0.11655895     0.85500
N84         N  0.47195398  0.30632087  0.12148170    -0.75200
C85         C  0.00529951  0.33716678  0.11126588     0.85600
N86         N  0.02986119  0.33555538  0.12753498    -0.76900
Fe87       Fe  0.34467669  0.13144843  0.25175590     1.65800
Fe88       Fe  0.28686974  0.15255904  0.24956071     1.73200
Fe89       Fe  0.36568987  0.21035342  0.25200783     1.54400
O90         O  0.39428592  0.20426842  0.29185527    -0.78800
O91         O  0.29278899  0.18348903  0.20475514    -0.77200
O92         O  0.37649629  0.15221262  0.29700147    -0.81400
O93         O  0.38153125  0.15546715  0.21268772    -0.76200
O94         O  0.34401700  0.22085609  0.29661094    -0.78000
O95         O  0.27487535  0.11647064  0.20975517    -0.80700
C96         C  0.39688747  0.18329494  0.19847563     1.00000
C97         C  0.39568017  0.18091263  0.30617609     1.07500
O98         O  0.33241579  0.16477644  0.25107907    -1.09700
O99         O  0.27485065  0.12007136  0.29419786    -0.72100
O100        O  0.30959153  0.10272492  0.29107598    -0.75600
O101        O  0.39150205  0.20553379  0.20743843    -0.76300
C102        C  0.28453712  0.10122325  0.30442816     0.98900
O103        O  0.31463014  0.10601335  0.20644194    -0.74300
O104        O  0.29204112  0.18697367  0.28905715    -0.79500
C105        C  0.31501223  0.21143724  0.19705347     1.01600
C106        C  0.31506448  0.21141285  0.30434514     1.07500
O107        O  0.34239369  0.22371545  0.21238817    -0.75100
C108        C  0.28743884  0.10109941  0.19612939     1.05800
Fe109      Fe  0.21091642  0.34530037  0.25360690     1.65800
Fe110      Fe  0.13195301  0.28734957  0.25136235     1.73200
Fe111      Fe  0.15302716  0.36631600  0.25163734     1.54400
O112        O  0.18674375  0.39491248  0.29226342    -0.78800
O113        O  0.10687842  0.29282632  0.20625258    -0.77200
O114        O  0.22187507  0.37823282  0.29743241    -0.81400
O115        O  0.22395497  0.38120805  0.21302199    -0.76200
O116        O  0.11993444  0.34484637  0.29536412    -0.78000
O117        O  0.15602983  0.27494281  0.21205695    -0.80700
C118        C  0.21193697  0.39696771  0.19877604     1.00000
C119        C  0.21180615  0.39697679  0.30646909     1.07500
O120        O  0.16531644  0.33298549  0.25217247    -1.09700
O121        O  0.15245041  0.27558482  0.29621001    -0.72100
O122        O  0.20439913  0.31114370  0.29440667    -0.75600
O123        O  0.18457534  0.39219902  0.20785541    -0.76300
C124        C  0.18088131  0.28574911  0.30720874     0.98900
O125        O  0.20661147  0.31414059  0.20998075    -0.74300
O126        O  0.10290217  0.29287073  0.29080241    -0.79500
C127        C  0.10210305  0.31532783  0.19656312     1.01600
C128        C  0.10109352  0.31608393  0.30471332     1.07500
O129        O  0.11747510  0.34305069  0.21086658    -0.75100
C130        C  0.18430364  0.28699676  0.19961636     1.05800
C131        C  0.47116958  0.50154428  0.35893325     0.05100
C132        C  0.46950495  0.47176301  0.35876013     0.05100
C133        C  0.49759731  0.47008836  0.35944147     0.05100
C134        C  0.03006589  0.50238780  0.41358083     0.05100
C135        C  0.02761004  0.02930920  0.41622003     0.05100
C136        C  0.49749375  0.02799358  0.41726194     0.05100
C137        C  0.21952352  0.02700216  0.36932355     0.83000
N138        N  0.22171544  0.50268916  0.37932908    -0.75300
C139        C  0.19625526  0.47757203  0.39646230     0.85500
N140        N  0.16966403  0.47914294  0.40361903    -0.75200
C141        C  0.16827504  0.50543237  0.39377655     0.85600
N142        N  0.19292024  0.02854897  0.37683420    -0.76900
C143        C  0.30394351  0.02360093  0.39558687     0.83000
N144        N  0.33035674  0.02168810  0.40301439    -0.75300
C145        C  0.33504027  0.50399656  0.36810192     0.85500
N146        N  0.30806331  0.47748280  0.35705444    -0.75200
C147        C  0.27946682  0.47570422  0.36099996     0.85600
N148        N  0.27801158  0.50087916  0.37607180    -0.76900
C149        C  0.47142238  0.19156862  0.36924513     0.83000
N150        N  0.49825556  0.21947941  0.37807367    -0.75300
C151        C  0.02422246  0.21924886  0.39547438     0.85500
N152        N  0.02249200  0.19084326  0.40175768    -0.75200
C153        C  0.49483065  0.16320047  0.39473266     0.85600
N154        N  0.46989779  0.16352483  0.37754419    -0.76900
C155        C  0.21817043  0.19566726  0.39573734     0.83000
N156        N  0.21852683  0.22140814  0.37940083    -0.75300
C157        C  0.19067818  0.22016746  0.36989641     0.85500
N158        N  0.16265285  0.19318014  0.37663890    -0.75200
C159        C  0.16233661  0.16763856  0.39295796     0.85600
N160        N  0.18998955  0.16890421  0.40248953    -0.76900
C161        C  0.02628470  0.30675517  0.36764567     0.83000
N162        N  0.02828198  0.33528196  0.37382350    -0.75300
C163        C  0.49706401  0.33227281  0.36780927     0.85500
N164        N  0.47208612  0.30568950  0.38263439    -0.75200
C165        C  0.47334713  0.27851986  0.38600512     0.85600
N166        N  0.50000780  0.27811396  0.37458550    -0.76900
C167        C  0.27817600  0.30489544  0.38512418     0.83000
N168        N  0.27741996  0.27767011  0.37360345    -0.75300
C169        C  0.30409339  0.27898411  0.35896084     0.85500
N170        N  0.33125469  0.30744792  0.35587809    -0.75200
C171        C  0.33197947  0.33443302  0.36740165     0.85600
N172        N  0.30555247  0.33315817  0.38203959    -0.76900
C173        C  0.49534938  0.05667771  0.41636684    -0.15700
C174        C  0.49405428  0.08072713  0.41379694     0.08400
C175        C  0.49327968  0.10909998  0.40870061     0.10200
C176        C  0.49343039  0.13361478  0.40286656    -0.16500
C177        C  0.05622753  0.06007273  0.41388830    -0.15700
C178        C  0.08014031  0.08539727  0.41049393     0.08400
C179        C  0.10835686  0.11459425  0.40513948     0.10200
C180        C  0.13278750  0.13909500  0.39979219    -0.16500
C181        C  0.43896018  0.44282208  0.35891248    -0.15700
C182        C  0.41394786  0.41835629  0.35997657     0.08400
C183        C  0.38513823  0.38934199  0.36206272     0.10200
C184        C  0.36077668  0.36432383  0.36432427    -0.16500
C185        C  0.44229092  0.50327994  0.35882209    -0.15700
C186        C  0.41820591  0.50455947  0.35966669     0.08400
C187        C  0.38973616  0.50543016  0.36176932     0.10200
C188        C  0.36500487  0.50532690  0.36436951    -0.16500
C189        C  0.06077945  0.50434488  0.41264778    -0.15700
C190        C  0.08607896  0.50558191  0.41028208     0.08400
C191        C  0.11527273  0.50642634  0.40577934     0.10200
C192        C  0.13978083  0.50646055  0.40074338    -0.16500
C193        C  0.49594449  0.43948901  0.35963587    -0.15700
C194        C  0.49515685  0.41433420  0.36048645     0.08400
C195        C  0.49506841  0.38534364  0.36232552     0.10200
C196        C  0.49567141  0.36092592  0.36455512    -0.16500
C197        C  0.18688030  0.26618112  0.33341470    -0.10400
C198        C  0.19026890  0.24665419  0.35139324    -0.12000
C199        C  0.05243479  0.30614363  0.34868710    -0.10400
C200        C  0.07518148  0.30946105  0.33052288    -0.12000
C201        C  0.25140262  0.44748488  0.34731027    -0.10400
C202        C  0.23131480  0.42349883  0.33152839    -0.12000
C203        C  0.42162344  0.18734064  0.33206196    -0.10400
C204        C  0.44465091  0.19104997  0.35010277    -0.12000
C205        C  0.26498456  0.07571103  0.33071687    -0.10400
C206        C  0.24564490  0.05322976  0.34945054    -0.12000
C207        C  0.30404785  0.25092890  0.34500077    -0.10400
C208        C  0.30797781  0.23090959  0.32920983    -0.12000
C209        C  0.07664854  0.30892806  0.16994656    -0.10400
C210        C  0.05409469  0.30603384  0.15159695    -0.12000
C211        C  0.30516419  0.25186300  0.15634457    -0.10400
C212        C  0.30848989  0.23138195  0.17206868    -0.12000
C213        C  0.44576165  0.19329355  0.15487843    -0.10400
C214        C  0.42291760  0.19010319  0.17273264    -0.12000
C215        C  0.19156789  0.26771005  0.17461217    -0.10400
C216        C  0.19507571  0.24785985  0.15769292    -0.12000
C217        C  0.24921897  0.05328680  0.15070479    -0.10400
C218        C  0.26876627  0.07563199  0.16941603    -0.12000
C219        C  0.23158081  0.42315464  0.17341571    -0.10400
C220        C  0.25188434  0.44687252  0.15746726    -0.12000
C221        C  0.05728895  0.06130645  0.09895821    -0.15700
C222        C  0.08140147  0.08637538  0.10291416     0.08400
C223        C  0.11001140  0.11511706  0.10864820     0.10200
C224        C  0.13484348  0.13923600  0.11382527    -0.16500
C225        C  0.99461792  0.13414484  0.11143452    -0.15700
C226        C  0.99435781  0.10944346  0.10698942     0.08400
C227        C  0.99516614  0.08108649  0.10214246     0.10200
C228        C  0.99654361  0.05714312  0.09875338    -0.16500
C229        C  0.06161578  0.00490244  0.09621766    -0.15700
C230        C  0.08713219  0.00652463  0.09825480     0.08400
C231        C  0.11657920  0.00765639  0.10160056     0.10200
C232        C  0.14114852  0.00747003  0.10508291    -0.16500
C233        C  0.00551441  0.44451813  0.09424528    -0.15700
C234        C  0.00693930  0.42056284  0.09715061     0.08400
C235        C  0.00762327  0.39209968  0.10160677     0.10200
C236        C  0.00720154  0.36729765  0.10592135    -0.16500
C237        C  0.36147237  0.36579635  0.14063997    -0.15700
C238        C  0.38592029  0.39062640  0.14440526     0.08400
C239        C  0.41500026  0.41931841  0.14828374     0.10200
C240        C  0.44019280  0.44356944  0.15069690    -0.16500
C241        C  0.36055179  0.99309906  0.10309369    -0.15700
C242        C  0.38490964  0.99280601  0.09791952     0.08400
C243        C  0.41411757  0.99367863  0.09300093     0.10200
C244        C  0.43957712  0.99526421  0.09017838    -0.16500
C245        C  0.30659025  0.07579218  0.42229769    -0.10400
C246        C  0.30334536  0.05180928  0.40739795    -0.12000
C247        C  0.30543162  0.05225470  0.09434204    -0.10400
C248        C  0.30901654  0.07636695  0.07920267    -0.12000
C249        C  0.24704154  0.19646024  0.40785056    -0.10400
C250        C  0.26770786  0.19305465  0.42285698    -0.12000
C251        C  0.42332385  0.23107981  0.42021532    -0.10400
C252        C  0.44655862  0.25092269  0.40301420    -0.12000
C253        C  0.26867553  0.19193032  0.08278543    -0.10400
C254        C  0.24860544  0.19522615  0.09943444    -0.12000
C255        C  0.44675467  0.25215015  0.09887167    -0.10400
C256        C  0.42376410  0.23241181  0.08124018    -0.12000
C257        C  0.07647799  0.26848410  0.42273665    -0.10400
C258        C  0.05245518  0.24791014  0.40762867    -0.12000
C259        C  0.07669693  0.26804737  0.08072690    -0.10400
C260        C  0.05283291  0.24798581  0.09675925    -0.12000
C261        C  0.19356688  0.42541044  0.42396040    -0.10400
C262        C  0.19708020  0.44950902  0.40883896    -0.12000
C263        C  0.25086852  0.30445475  0.40225657    -0.10400
C264        C  0.23138941  0.30811674  0.41981460    -0.12000
C265        C  0.19622490  0.44915362  0.09534768    -0.10400
C266        C  0.19238872  0.42494874  0.08032349    -0.12000
C267        C  0.25217734  0.30548938  0.09856408    -0.10400
C268        C  0.23229602  0.30866711  0.08105405    -0.12000
Fe269      Fe  0.21355752  0.36604859  0.50128070     1.65800
Fe270      Fe  0.13389641  0.34650328  0.00184302     1.73200
Fe271      Fe  0.15447562  0.28818021  0.00087431     1.54400
O272        O  0.18765555  0.29392375  0.95907196    -0.78800
O273        O  0.10699327  0.31331684  0.54295557    -0.77200
O274        O  0.22458251  0.34543689  0.95878605    -0.81400
O275        O  0.22547275  0.34293403  0.54262890    -0.76200
O276        O  0.12068711  0.27680347  0.95790676    -0.78000
O277        O  0.15759501  0.37989423  0.54438439    -0.80700
C278        C  0.21433519  0.31430490  0.55337940     1.00000
C279        C  0.21361746  0.31712264  0.94697786     1.07500
O280        O  0.16704120  0.33391962  0.00160675    -1.09700
O281        O  0.15583833  0.38005217  0.95857945    -0.72100
O282        O  0.20745135  0.39504348  0.96063493    -0.75600
O283        O  0.18776475  0.29172806  0.54191231    -0.76300
C284        C  0.18444084  0.39779112  0.94786522     0.98900
O285        O  0.20877448  0.39310480  0.54426923    -0.74300
O286        O  0.10555099  0.31324552  0.96067731    -0.79500
C287        C  0.10378235  0.28727415  0.55544142     1.01600
C288        C  0.10272183  0.28754013  0.94765860     1.07500
O289        O  0.12111178  0.27603362  0.54439643    -0.75100
C290        C  0.18601399  0.39659157  0.55625042     1.05800
Fe291      Fe  0.36611546  0.15401271  0.50034637     1.65800
Fe292      Fe  0.28754775  0.13404719  0.50095205     1.73200
Fe293      Fe  0.34622720  0.21269754  0.50022301     1.54400
O294        O  0.37911659  0.22389008  0.54413911    -0.78800
O295        O  0.27624478  0.15626835  0.95849833    -0.77200
O296        O  0.39558054  0.18853577  0.53959329    -0.81400
O297        O  0.39462667  0.18950755  0.96001893    -0.76200
O298        O  0.31247381  0.20749644  0.54068974    -0.78000
O299        O  0.29304683  0.10629269  0.96093140    -0.80700
C300        C  0.39668014  0.21497957  0.94716736     1.00000
C301        C  0.39792860  0.21387875  0.55317542     1.07500
O302        O  0.33330180  0.16692736  0.50045050    -1.09700
O303        O  0.29308005  0.10494876  0.54052797    -0.72100
O304        O  0.34498534  0.12186985  0.54527494    -0.75600
O305        O  0.37861188  0.22532183  0.95816419    -0.76300
C306        C  0.31621991  0.10302756  0.55455702     0.98900
O307        O  0.34483475  0.12252736  0.95678223    -0.74300
O308        O  0.27724262  0.15560633  0.54579000    -0.79500
C309        C  0.28661212  0.18497681  0.94850992     1.01600
C310        C  0.28756451  0.18443825  0.55509446     1.07500
O311        O  0.31193841  0.20810291  0.96197476    -0.75100
C312        C  0.31605455  0.10407505  0.94721371     1.05800
C313        C  0.46978214  0.99782930  0.59036782     0.05100
C314        C  0.99853303  0.02847128  0.60224039     0.05100
C315        C  0.02836012  0.03026951  0.60270647     0.05100
C316        C  0.03008390  0.00220829  0.60374955     0.05100
C317        C  0.00243602  0.47209227  0.60234464     0.05100
C318        C  0.47401477  0.46991100  0.57215030     0.05100
C319        C  0.28152913  0.47121901  0.63055961     0.83000
N320        N  0.30738888  0.46870875  0.62156825    -0.75300
C321        C  0.33210924  0.99537818  0.61397061     0.85500
N322        N  0.33163292  0.02198509  0.60326060    -0.75200
C323        C  0.30540069  0.02441890  0.60937308     0.85600
N324        N  0.27931297  0.99983451  0.62628680    -0.76900
C325        C  0.19596313  0.47412659  0.61150364     0.83000
N326        N  0.22256951  0.00175724  0.62533943    -0.75300
C327        C  0.22227223  0.02869631  0.63571475     0.85500
N328        N  0.19525499  0.03011191  0.63149884    -0.75200
C329        C  0.16872409  0.00499484  0.61680293     0.85600
N330        N  0.16907143  0.47569931  0.60673265    -0.76900
C331        C  0.22081152  0.19539291  0.61115833     0.83000
N332        N  0.19220457  0.16860655  0.60676838    -0.75300
C333        C  0.16520047  0.16806322  0.61770246     0.85500
N334        N  0.16663874  0.19439765  0.63302361    -0.75200
C335        C  0.19509123  0.22142512  0.63741651     0.85600
N336        N  0.22232774  0.22196695  0.62651006    -0.76900
C337        C  0.47340887  0.19369189  0.63591391     0.83000
N338        N  0.00040398  0.22163831  0.62637939    -0.75300
C339        C  0.02551445  0.22024498  0.61099132     0.85500
N340        N  0.02369379  0.19167759  0.60662138    -0.75200
C341        C  0.99722363  0.16464701  0.61758443     0.85600
N342        N  0.47166552  0.16532045  0.62943790    -0.76900
C343        C  0.28462640  0.30370247  0.59994914     0.83000
N344        N  0.28444121  0.27859718  0.61787092    -0.75300
C345        C  0.31239180  0.27957191  0.62593090     0.85500
N346        N  0.34038008  0.30571049  0.61629736    -0.75200
C347        C  0.34054166  0.33064676  0.59837058     0.85600
N348        N  0.31274440  0.32961165  0.59028940    -0.76900
C349        C  0.02803682  0.30686153  0.63630049     0.83000
N350        N  0.00158923  0.27918461  0.62594084    -0.75300
C351        C  0.47851683  0.28333495  0.60135423     0.85500
N352        N  0.48158808  0.31179704  0.59156249    -0.75200
C353        C  0.00300245  0.33536977  0.61715613     0.85600
N354        N  0.02857495  0.33485175  0.63193503    -0.76900
Fe355      Fe  0.34672329  0.13480767  0.75202130     1.65800
Fe356      Fe  0.28937225  0.15624546  0.74787170     1.73200
Fe357      Fe  0.36825954  0.21374801  0.75206171     1.54400
O358        O  0.39184726  0.20809249  0.79879184    -0.78800
O359        O  0.29701393  0.19118785  0.70762632    -0.77200
O360        O  0.38292955  0.15860797  0.79190008    -0.81400
O361        O  0.37908991  0.15551812  0.70750903    -0.76200
O362        O  0.34315187  0.22643701  0.78952763    -0.78000
O363        O  0.27958497  0.12449037  0.70311290    -0.80700
C364        C  0.39890652  0.18431500  0.69938727     1.00000
C365        C  0.39748249  0.18593787  0.80734703     1.07500
O366        O  0.33476481  0.16828442  0.75077616    -1.09700
O367        O  0.27532586  0.11942101  0.78750825    -0.72100
O368        O  0.31556774  0.11015013  0.79660230    -0.75600
O369        O  0.39808927  0.20771723  0.71443769    -0.76300
C370        C  0.28756314  0.10452594  0.80365507     0.98900
O371        O  0.31247852  0.10551867  0.71228894    -0.74300
O372        O  0.29291029  0.18653312  0.79220120    -0.79500
C373        C  0.32102807  0.21583025  0.69418246     1.01600
C374        C  0.31485986  0.21402121  0.80208898     1.07500
O375        O  0.34926869  0.22537702  0.70546069    -0.75100
C376        C  0.28865297  0.10464562  0.69598586     1.05800
Fe377      Fe  0.21414687  0.34696824  0.75177891     1.65800
Fe378      Fe  0.13505433  0.28934826  0.75057878     1.73200
Fe379      Fe  0.15655013  0.36849230  0.74958132     1.54400
O380        O  0.18825449  0.39552227  0.79275968    -0.78800
O381        O  0.10728065  0.29481055  0.70922389    -0.77200
O382        O  0.22656303  0.38287848  0.79200342    -0.81400
O383        O  0.22635671  0.37992249  0.70774131    -0.76200
O384        O  0.12109195  0.34591203  0.79078339    -0.78000
O385        O  0.15686751  0.27757951  0.70746947    -0.80700
C386        C  0.21599383  0.39783716  0.69598678     1.00000
C387        C  0.21499537  0.39969395  0.80383767     1.07500
O388        O  0.16858343  0.33495353  0.75068510    -1.09700
O389        O  0.15761072  0.27674563  0.79185722    -0.72100
O390        O  0.20824535  0.31558953  0.79599241    -0.75600
O391        O  0.19035580  0.39575777  0.70817141    -0.76300
C392        C  0.18541114  0.28855142  0.80577864     0.98900
O393        O  0.20872538  0.31299666  0.71150135    -0.74300
O394        O  0.10864386  0.29496658  0.79370758    -0.79500
C395        C  0.10492419  0.31790673  0.69598992     1.01600
C396        C  0.10465859  0.31782750  0.80400694     1.07500
O397        O  0.12306657  0.34654503  0.70625650    -0.75100
C398        C  0.18558784  0.28776279  0.69785104     1.05800
C399        C  0.47286127  0.50273042  0.83041178     0.05100
C400        C  0.46912179  0.47202588  0.82903914     0.05100
C401        C  0.49611108  0.46833121  0.82767219     0.05100
C402        C  0.03013519  0.50194920  0.90965894     0.05100
C403        C  0.02772739  0.03039086  0.90863047     0.05100
C404        C  0.49707880  0.02794287  0.91148764     0.05100
C405        C  0.22094477  0.02897218  0.86488953     0.83000
N406        N  0.22225808  0.50179095  0.87919496    -0.75300
C407        C  0.19578659  0.47685032  0.89483937     0.85500
N408        N  0.16949342  0.47924124  0.90079056    -0.75200
C409        C  0.16935204  0.50621698  0.89112963     0.85600
N410        N  0.19422461  0.03055061  0.87133618    -0.76900
C411        C  0.30479243  0.02442043  0.89629036     0.83000
N412        N  0.33083609  0.02196285  0.90407073    -0.75300
C413        C  0.33951772  0.50857163  0.85734438     0.85500
N414        N  0.31219220  0.48186744  0.84760076    -0.75200
C415        C  0.28361707  0.47920952  0.85543255     0.85600
N416        N  0.28246732  0.50366526  0.87313665    -0.76900
C417        C  0.47136594  0.19374235  0.87123046     0.83000
N418        N  0.49860033  0.22090554  0.88106923    -0.75300
C419        C  0.02412567  0.21961089  0.89339035     0.85500
N420        N  0.02221055  0.19104272  0.89872019    -0.75200
C421        C  0.49343701  0.16330110  0.89404419     0.85600
N422        N  0.46895633  0.16502230  0.87765468    -0.76900
C423        C  0.21904554  0.19548685  0.89351756     0.83000
N424        N  0.22054838  0.22195621  0.87782595    -0.75300
C425        C  0.19333481  0.22161642  0.86730356     0.85500
N426        N  0.16479527  0.19482379  0.87245112    -0.75200
C427        C  0.16334676  0.16854860  0.88817247     0.85600
N428        N  0.19038525  0.16892099  0.89870366    -0.76900
C429        C  0.02934848  0.30772717  0.86693214     0.83000
N430        N  0.03073054  0.33592195  0.87351464    -0.75300
C431        C  0.49087843  0.32964253  0.85148229     0.85500
N432        N  0.46690727  0.30469401  0.87029364    -0.75200
C433        C  0.46977240  0.27921310  0.88032230     0.85600
N434        N  0.49700727  0.27889711  0.87167809    -0.76900
C435        C  0.27872737  0.30860643  0.88185224     0.83000
N436        N  0.27795059  0.28109196  0.87171593    -0.75300
C437        C  0.30351986  0.28217194  0.85406287     0.85500
N438        N  0.32966759  0.31071725  0.84663830    -0.75200
C439        C  0.33052440  0.33807329  0.85676357     0.85600
N440        N  0.30512280  0.33702464  0.87439560    -0.76900
C441        C  0.49442932  0.05640518  0.91084183    -0.15700
C442        C  0.49250835  0.08016807  0.90870086     0.08400
C443        C  0.49115689  0.10837628  0.90460642     0.10200
C444        C  0.49128098  0.13305641  0.90011240    -0.16500
C445        C  0.05619366  0.06133848  0.90629307    -0.15700
C446        C  0.08010619  0.08672533  0.90311542     0.08400
C447        C  0.10851533  0.11589108  0.89828479     0.10200
C448        C  0.13325804  0.14026338  0.89367696    -0.16500
C449        C  0.43765647  0.44418975  0.83184899    -0.15700
C450        C  0.41205338  0.42066089  0.83615534     0.08400
C451        C  0.38282586  0.39257700  0.84278610     0.10200
C452        C  0.35854640  0.36804725  0.84910300    -0.16500
C453        C  0.44512440  0.50646646  0.83366621    -0.15700
C454        C  0.42180354  0.50892453  0.83772456     0.08400
C455        C  0.39394905  0.51058743  0.84378055     0.10200
C456        C  0.36951257  0.51059379  0.84973096    -0.16500
C457        C  0.06113057  0.50439191  0.90824360    -0.15700
C458        C  0.08676883  0.50630195  0.90566104     0.08400
C459        C  0.11637872  0.50784941  0.90131668     0.10200
C460        C  0.14105140  0.50800640  0.89685839    -0.16500
C461        C  0.49228580  0.43676793  0.82810906    -0.15700
C462        C  0.48975565  0.41085828  0.83049691     0.08400
C463        C  0.48816433  0.38132763  0.83576624     0.10200
C464        C  0.48840540  0.35707167  0.84215416    -0.16500
C465        C  0.19149894  0.26902221  0.83187527    -0.10400
C466        C  0.19417660  0.24893955  0.84951655    -0.12000
C467        C  0.05599827  0.30781722  0.84820497    -0.10400
C468        C  0.07888457  0.31135406  0.83008941    -0.12000
C469        C  0.25508884  0.45072110  0.84336996    -0.10400
C470        C  0.23462263  0.42650315  0.82842402    -0.12000
C471        C  0.42289442  0.19222747  0.83399287    -0.10400
C472        C  0.44531846  0.19481393  0.85237741    -0.12000
C473        C  0.26772560  0.07868820  0.82934948    -0.10400
C474        C  0.24788915  0.05572951  0.84693917    -0.12000
C475        C  0.30322815  0.25363418  0.84153204    -0.10400
C476        C  0.30708624  0.23332769  0.82639834    -0.12000
C477        C  0.07884153  0.31110771  0.67032411    -0.10400
C478        C  0.05539042  0.30716716  0.65321665    -0.12000
C479        C  0.31294125  0.25401596  0.64668511    -0.10400
C480        C  0.31589468  0.23507223  0.66648773    -0.12000
C481        C  0.44722983  0.19401705  0.65506507    -0.10400
C482        C  0.42464776  0.19070710  0.67350161    -0.12000
C483        C  0.19230589  0.26842580  0.67226116    -0.10400
C484        C  0.19572123  0.24873694  0.65483954    -0.12000
C485        C  0.24971150  0.05543588  0.65292580    -0.10400
C486        C  0.26948799  0.07854315  0.67032582    -0.12000
C487        C  0.23557395  0.42304669  0.66937127    -0.10400
C488        C  0.25522537  0.44526267  0.65055491    -0.12000
C489        C  0.05726200  0.06094001  0.60371990    -0.15700
C490        C  0.08154134  0.08612253  0.60579968     0.08400
C491        C  0.11027903  0.11515301  0.60940580     0.10200
C492        C  0.13515676  0.13955392  0.61308942    -0.16500
C493        C  0.99568960  0.13472321  0.61293935    -0.15700
C494        C  0.99528800  0.10995191  0.60911143     0.08400
C495        C  0.99575768  0.08142754  0.60527145     0.10200
C496        C  0.99679080  0.05728144  0.60308535    -0.16500
C497        C  0.06071856  0.00402935  0.60524246    -0.15700
C498        C  0.08608485  0.00536894  0.60715902     0.08400
C499        C  0.11543741  0.00634048  0.61004546     0.10200
C500        C  0.14009682  0.00631200  0.61294209    -0.16500
C501        C  0.00382570  0.44308716  0.60350448    -0.15700
C502        C  0.00429749  0.41863021  0.60553217     0.08400
C503        C  0.00418946  0.38977054  0.60897198     0.10200
C504        C  0.00375164  0.36494646  0.61253545    -0.16500
C505        C  0.37012193  0.35876743  0.58947578    -0.15700
C506        C  0.39449130  0.38323292  0.58322883     0.08400
C507        C  0.42253240  0.41271102  0.57753511     0.10200
C508        C  0.44608476  0.43844473  0.57420945    -0.16500
C509        C  0.36013129  0.99334162  0.60756311    -0.15700
C510        C  0.38440638  0.99295682  0.60221881     0.08400
C511        C  0.41351104  0.99380290  0.59661614     0.10200
C512        C  0.43887788  0.99534504  0.59294721    -0.16500
C513        C  0.30899745  0.07748321  0.92238399    -0.10400
C514        C  0.30498629  0.05314288  0.90764098    -0.12000
C515        C  0.30550724  0.05268009  0.59579396    -0.10400
C516        C  0.30939383  0.07660413  0.57980515    -0.12000
C517        C  0.24714646  0.19543934  0.90696236    -0.10400
C518        C  0.26722647  0.19175832  0.92303352    -0.12000
C519        C  0.42195027  0.23425392  0.92053025    -0.10400
C520        C  0.44413907  0.25339314  0.90129070    -0.12000
C521        C  0.26855074  0.19143033  0.58084106    -0.10400
C522        C  0.24877162  0.19534256  0.59721853    -0.12000
C523        C  0.44956430  0.25464451  0.59104206    -0.10400
C524        C  0.42499363  0.23391206  0.57712987    -0.12000
C525        C  0.07620392  0.26809638  0.92253660    -0.10400
C526        C  0.05226970  0.24790302  0.90676463    -0.12000
C527        C  0.07750918  0.26812051  0.58095123    -0.10400
C528        C  0.05362411  0.24829908  0.59712463    -0.12000
C529        C  0.19137138  0.42411058  0.92258009    -0.10400
C530        C  0.19536706  0.44823384  0.90717863    -0.12000
C531        C  0.25234110  0.30820143  0.90165087    -0.10400
C532        C  0.23284337  0.31101070  0.92040848    -0.12000
C533        C  0.19630981  0.44618398  0.59804511    -0.10400
C534        C  0.19294408  0.42256157  0.58202956    -0.12000
C535        C  0.25551493  0.30329931  0.59007524    -0.10400
C536        C  0.23444445  0.30691448  0.57675105    -0.12000
Fe537      Fe  0.21240559  0.86631730  0.99571794     1.65800
Fe538      Fe  0.13387420  0.84615571  0.50450304     1.73200
Fe539      Fe  0.15336218  0.78721193  0.50424188     1.54400
O540        O  0.18348974  0.79182604  0.45911024    -0.78800
O541        O  0.10487996  0.81166249  0.03583414    -0.77200
O542        O  0.22429962  0.84135864  0.46513022    -0.81400
O543        O  0.22355923  0.84498730  0.04027517    -0.76200
O544        O  0.11676198  0.77521599  0.46509796    -0.78000
O545        O  0.15522234  0.87840648  0.04049246    -0.80700
C546        C  0.21369401  0.81617133  0.04937361     1.00000
C547        C  0.21139847  0.81370534  0.45054194     1.07500
O548        O  0.16649908  0.83300964  0.50437934    -1.09700
O549        O  0.15821496  0.88270069  0.46523485    -0.72100
O550        O  0.20776820  0.89152596  0.45950342    -0.75600
O551        O  0.18855713  0.79304466  0.03549731    -0.76300
C552        C  0.18591273  0.89755213  0.45079077     0.98900
O553        O  0.20710050  0.89529762  0.03540847    -0.74300
O554        O  0.10803001  0.81604486  0.45952517    -0.79500
C555        C  0.10295614  0.78660989  0.04992065     1.01600
C556        C  0.10193751  0.78816953  0.45075552     1.07500
O557        O  0.12174514  0.77661438  0.04069167    -0.75100
C558        C  0.18405496  0.89725438  0.04952383     1.05800
Fe559      Fe  0.36772364  0.65466743  0.00409381     1.65800
Fe560      Fe  0.28882546  0.63395609  0.00193566     1.73200
Fe561      Fe  0.34704674  0.71292124  0.00252570     1.54400
O562        O  0.38136256  0.72498752  0.04487227    -0.78800
O563        O  0.27567604  0.65950665  0.46371350    -0.77200
O564        O  0.39408804  0.68672477  0.04721092    -0.81400
O565        O  0.39231335  0.68533373  0.45704650    -0.76200
O566        O  0.31433151  0.70769072  0.04452265    -0.78000
O567        O  0.29309329  0.60994262  0.45565681    -0.80700
C568        C  0.39860864  0.71344630  0.44913248     1.00000
C569        C  0.39787609  0.71340057  0.05785084     1.07500
O570        O  0.33452122  0.66718373  0.00287667    -1.09700
O571        O  0.29332757  0.60637494  0.04461171    -0.72100
O572        O  0.34449598  0.61980299  0.04552006    -0.75600
O573        O  0.38369764  0.72613948  0.46386121    -0.76300
C574        C  0.31597818  0.60274900  0.05676096     0.98900
O575        O  0.34243658  0.61826775  0.46243193    -0.74300
O576        O  0.27638749  0.65647173  0.04362626    -0.79500
C577        C  0.28851727  0.68719428  0.44909939     1.01600
C578        C  0.28773559  0.68485351  0.05559761     1.07500
O579        O  0.31666135  0.70887275  0.45708380    -0.75100
C580        C  0.31489988  0.60374519  0.44735733     1.05800
C581        C  0.47257722  0.50234588  0.15197637     0.05100
C582        C  0.99800784  0.52830786  0.09217316     0.05100
C583        C  0.02816368  0.53079161  0.09162992     0.05100
C584        C  0.03067136  0.50312092  0.09146183     0.05100
C585        C  0.00289130  0.97275475  0.09443012     0.05100
C586        C  0.47326328  0.97033396  0.08837074     0.05100
C587        C  0.28020463  0.97212651  0.13369173     0.83000
N588        N  0.30670210  0.97025342  0.12677099    -0.75300
C589        C  0.33573989  0.50313630  0.13771755     0.85500
N590        N  0.33446379  0.52810293  0.12217717    -0.75200
C591        C  0.30608017  0.52673340  0.11750505     0.85600
N592        N  0.27878802  0.50003922  0.12832107    -0.76900
C593        C  0.19580732  0.97625707  0.10372622     0.83000
N594        N  0.22206911  0.50241483  0.12443525    -0.75300
C595        C  0.22151528  0.52937747  0.13406900     0.85500
N596        N  0.19506077  0.53129460  0.12686308    -0.75200
C597        C  0.16938028  0.50667620  0.10992932     0.85600
N598        N  0.16954704  0.97885819  0.09852054    -0.76900
C599        C  0.21962170  0.69559742  0.10898024     0.83000
N600        N  0.19106411  0.66917343  0.10270644    -0.75300
C601        C  0.16383750  0.66850367  0.11284133     0.85500
N602        N  0.16496656  0.69434043  0.12927162    -0.75200
C603        C  0.19334860  0.72102681  0.13558569     0.85600
N604        N  0.22082047  0.72167412  0.12550152    -0.76900
C605        C  0.47558704  0.69604764  0.14382029     0.83000
N606        N  0.00020335  0.72147499  0.12250804    -0.75300
C607        C  0.02436101  0.71947220  0.10525157     0.85500
N608        N  0.02159161  0.69058237  0.09969143    -0.75200
C609        C  0.99509879  0.66378832  0.11124583     0.85600
N610        N  0.47731769  0.66918517  0.14796050    -0.76900
C611        C  0.28197915  0.80505098  0.10207774     0.83000
N612        N  0.28034254  0.77911066  0.11961536    -0.75300
C613        C  0.30753201  0.77943015  0.13033710     0.85500
N614        N  0.33617689  0.80575362  0.12365539    -0.75200
C615        C  0.33777774  0.83151100  0.10612976     0.85600
N616        N  0.31075385  0.83111767  0.09540994    -0.76900
C617        C  0.02765356  0.80725994  0.13532519     0.83000
N618        N  0.00120126  0.77963675  0.12475592    -0.75300
C619        C  0.47657719  0.78198708  0.11027512     0.85500
N620        N  0.47917941  0.81056336  0.10255902    -0.75200
C621        C  0.00361100  0.83615727  0.11373032     0.85600
N622        N  0.02868056  0.83540978  0.12983653    -0.76900
Fe623      Fe  0.34488977  0.63471503  0.25228191     1.65800
Fe624      Fe  0.28728729  0.65617716  0.25132147     1.73200
Fe625      Fe  0.36639746  0.71380729  0.25106987     1.54400
O626        O  0.39473731  0.70817808  0.29157886    -0.78800
O627        O  0.29271394  0.68731832  0.20683657    -0.77200
O628        O  0.37755776  0.65618276  0.29656495    -0.81400
O629        O  0.38120083  0.65786736  0.21227172    -0.76200
O630        O  0.34526767  0.72560555  0.29493568    -0.78000
O631        O  0.27466676  0.62013568  0.21114799    -0.80700
C632        C  0.39713002  0.68571449  0.19827420     1.00000
C633        C  0.39647418  0.68496629  0.30573117     1.07500
O634        O  0.33285312  0.66822254  0.25152736    -1.09700
O635        O  0.27540963  0.62331096  0.29562737    -0.72100
O636        O  0.31053435  0.60649457  0.29257728    -0.75600
O637        O  0.39223690  0.70824670  0.20722928    -0.76300
C638        C  0.28534223  0.60466786  0.30590078     0.98900
O639        O  0.31382135  0.60872015  0.20799360    -0.74300
O640        O  0.29329465  0.69042028  0.29163446    -0.79500
C641        C  0.31540771  0.71430727  0.19655847     1.01600
C642        C  0.31670372  0.71554952  0.30514256     1.07500
O643        O  0.34328510  0.72634667  0.21034659    -0.75100
C644        C  0.28671927  0.60417379  0.19780067     1.05800
Fe645      Fe  0.21254075  0.84561926  0.25190736     1.65800
Fe646      Fe  0.13326494  0.78839182  0.25170511     1.73200
Fe647      Fe  0.15535359  0.86773006  0.25119953     1.54400
O648        O  0.18730389  0.89406109  0.29455235    -0.78800
O649        O  0.10576922  0.79427085  0.21019309    -0.77200
O650        O  0.22515501  0.88078525  0.29306379    -0.81400
O651        O  0.22488245  0.87930771  0.20850733    -0.76200
O652        O  0.12017775  0.84538848  0.29256372    -0.78000
O653        O  0.15487030  0.77610710  0.20868521    -0.80700
C654        C  0.21453252  0.89739435  0.19729713     1.00000
C655        C  0.21373968  0.89747887  0.30573945     1.07500
O656        O  0.16705079  0.83391666  0.25155560    -1.09700
O657        O  0.15557014  0.77572335  0.29329928    -0.72100
O658        O  0.20665082  0.81368067  0.29550103    -0.75600
O659        O  0.18894575  0.89517789  0.20981316    -0.76300
C660        C  0.18357935  0.78717962  0.30644106     0.98900
O661        O  0.20666677  0.81206625  0.21080088    -0.74300
O662        O  0.10703825  0.79427806  0.29488532    -0.79500
C663        C  0.10350001  0.81752939  0.19726205     1.01600
C664        C  0.10357452  0.81733984  0.30568189     1.07500
O665        O  0.12162513  0.84608605  0.20795123    -0.75100
C666        C  0.18341419  0.78650620  0.19799811     1.05800
C667        C  0.46958249  0.99798318  0.41710143     0.05100
C668        C  0.47174886  0.97011757  0.41623023     0.05100
C669        C  0.50178702  0.97229349  0.41505559     0.05100
C670        C  0.02977767  0.00143855  0.41682749     0.05100
C671        C  0.02818843  0.53040735  0.41359155     0.05100
C672        C  0.50093322  0.52963875  0.36022766     0.05100
C673        C  0.22037968  0.52923753  0.36950779     0.83000
N674        N  0.22077733  0.00050715  0.37953233    -0.75300
C675        C  0.19546754  0.97580251  0.39736845     0.85500
N676        N  0.16908829  0.97771180  0.40486715    -0.75200
C677        C  0.16776935  0.00397645  0.39462213     0.85600
N678        N  0.19354037  0.53039333  0.37671261    -0.76900
C679        C  0.30519172  0.52763384  0.38711191     0.83000
N680        N  0.33361977  0.52899449  0.38315638    -0.75300
C681        C  0.33129814  0.99505638  0.39377560     0.85500
N682        N  0.30570928  0.97013109  0.37709295    -0.75200
C683        C  0.27907506  0.97171619  0.36970600     0.85600
N684        N  0.27823240  0.99856867  0.37888087    -0.76900
C685        C  0.47493265  0.69559479  0.36037907     0.83000
N686        N  0.50022699  0.72231255  0.37509919    -0.75300
C687        C  0.02367409  0.71994861  0.39706198     0.85500
N688        N  0.02220730  0.69165026  0.40302319    -0.75200
C689        C  0.50286152  0.66803101  0.36831143     0.85600
N690        N  0.47643086  0.66857818  0.35700134    -0.76900
C691        C  0.21933305  0.69728331  0.39789271     0.83000
N692        N  0.21996037  0.72296070  0.38103097    -0.75300
C693        C  0.19228213  0.72193109  0.37124613     0.85500
N694        N  0.16408173  0.69511740  0.37812336    -0.75200
C695        C  0.16346039  0.66956242  0.39494689     0.85600
N696        N  0.19101170  0.67069089  0.40479257    -0.76900
C697        C  0.02974082  0.80820863  0.37089177     0.83000
N698        N  0.03132586  0.83640473  0.37829959    -0.75300
C699        C  0.50596818  0.83778229  0.39222541     0.85500
N700        N  0.47961518  0.81040894  0.40268100    -0.75200
C701        C  0.47779286  0.78198175  0.39663384     0.85600
N702        N  0.50274327  0.78105611  0.38002471    -0.76900
C703        C  0.28017945  0.80442855  0.39746125     0.83000
N704        N  0.27957047  0.77906320  0.37986603    -0.75300
C705        C  0.30728508  0.78026914  0.36990248     0.85500
N706        N  0.33545024  0.80691854  0.37737682    -0.75200
C707        C  0.33604171  0.83213849  0.39489953     0.85600
N708        N  0.30848556  0.83086435  0.40493179    -0.76900
C709        C  0.50263126  0.56022342  0.36089642    -0.15700
C710        C  0.50367290  0.58547620  0.36180204     0.08400
C711        C  0.50420400  0.61465599  0.36341107     0.10200
C712        C  0.50396421  0.63924918  0.36534318    -0.16500
C713        C  0.05702057  0.56123305  0.41254965    -0.15700
C714        C  0.08100018  0.58671813  0.41022855     0.08400
C715        C  0.10926147  0.61622246  0.40601158     0.10200
C716        C  0.13373383  0.64093493  0.40138133    -0.16500
C717        C  0.44304964  0.93929091  0.41462951    -0.15700
C718        C  0.41893992  0.91399673  0.41194714     0.08400
C719        C  0.39041692  0.88487611  0.40725462     0.10200
C720        C  0.36576945  0.86049381  0.40209539    -0.16500
C721        C  0.43871784  0.99584891  0.41542234    -0.15700
C722        C  0.41334428  0.99447178  0.41218605     0.08400
C723        C  0.38410188  0.99355359  0.40671831     0.10200
C724        C  0.35964471  0.99362966  0.40110204    -0.16500
C725        C  0.06061515  0.00359218  0.41516996    -0.15700
C726        C  0.08592938  0.00485780  0.41227543     0.08400
C727        C  0.11507009  0.00557312  0.40728527     0.10200
C728        C  0.13945816  0.00537424  0.40192479    -0.16500
C729        C  0.50395438  0.94371625  0.41204511    -0.15700
C730        C  0.50565649  0.91997769  0.40837142     0.08400
C731        C  0.50704783  0.89196936  0.40312500     0.10200
C732        C  0.50726272  0.86755717  0.39821926    -0.16500
C733        C  0.18955314  0.76794941  0.33324958    -0.10400
C734        C  0.19236478  0.74839609  0.35196784    -0.12000
C735        C  0.05598262  0.80822609  0.35123722    -0.10400
C736        C  0.07832940  0.81127327  0.33238557    -0.12000
C737        C  0.25254322  0.94529261  0.35073152    -0.10400
C738        C  0.23294944  0.92282792  0.33226579    -0.12000
C739        C  0.42285919  0.69172651  0.33087873    -0.10400
C740        C  0.44678609  0.69552154  0.34665381    -0.12000
C741        C  0.26586502  0.57887413  0.33200334    -0.10400
C742        C  0.24660311  0.55596045  0.35028669    -0.12000
C743        C  0.30735744  0.75409371  0.35024326    -0.10400
C744        C  0.31054166  0.73481151  0.33154550    -0.12000
C745        C  0.07765022  0.81102812  0.17123532    -0.10400
C746        C  0.05455112  0.80734093  0.15343492    -0.12000
C747        C  0.30656552  0.75280442  0.15041454    -0.10400
C748        C  0.30918903  0.73332253  0.16959470    -0.12000
C749        C  0.44750742  0.69605491  0.15767045    -0.10400
C750        C  0.42363891  0.69241997  0.17339855    -0.12000
C751        C  0.18991282  0.76716111  0.17204492    -0.10400
C752        C  0.19357623  0.74782640  0.15408021    -0.12000
C753        C  0.24812725  0.55567955  0.15327815    -0.10400
C754        C  0.26757887  0.57838673  0.17162694    -0.12000
C755        C  0.23399982  0.92301724  0.17101220    -0.10400
C756        C  0.25350409  0.94574027  0.15268723    -0.12000
C757        C  0.05663293  0.56173772  0.09327714    -0.15700
C758        C  0.08063843  0.58704818  0.09626305     0.08400
C759        C  0.10913793  0.61606315  0.10128244     0.10200
C760        C  0.13388232  0.64031565  0.10637643    -0.16500
C761        C  0.99291097  0.63352628  0.10587508    -0.15700
C762        C  0.99264274  0.60879927  0.10154801     0.08400
C763        C  0.99375788  0.58055394  0.09708712     0.10200
C764        C  0.99548545  0.55675961  0.09417881    -0.16500
C765        C  0.06168499  0.50565754  0.09235271    -0.15700
C766        C  0.08723048  0.50733971  0.09446516     0.08400
C767        C  0.11663402  0.50845992  0.09854049     0.10200
C768        C  0.14115135  0.50836013  0.10323076    -0.16500
C769        C  0.00490097  0.94401885  0.09584496    -0.15700
C770        C  0.00562465  0.91968063  0.09859413     0.08400
C771        C  0.00552087  0.89083044  0.10322421     0.10200
C772        C  0.00486531  0.86594406  0.10787819    -0.16500
C773        C  0.36795791  0.85966724  0.10003582    -0.15700
C774        C  0.39267824  0.88416401  0.09563703     0.08400
C775        C  0.42101160  0.91360935  0.09159885     0.10200
C776        C  0.44484518  0.93920852  0.08935926    -0.16500
C777        C  0.36572002  0.50460248  0.14243126    -0.15700
C778        C  0.39062270  0.50513910  0.14594939     0.08400
C779        C  0.41938995  0.50491688  0.14922036     0.10200
C780        C  0.44367656  0.50404585  0.15105102    -0.16500
C781        C  0.30783757  0.57758562  0.42164466    -0.10400
C782        C  0.30450866  0.55441389  0.40436072    -0.12000
C783        C  0.30554003  0.55345220  0.09989257    -0.10400
C784        C  0.30890680  0.57658063  0.08244487    -0.12000
C785        C  0.24814231  0.69794396  0.40998240    -0.10400
C786        C  0.26892496  0.69461004  0.42475774    -0.12000
C787        C  0.42550159  0.73305668  0.42463600    -0.10400
C788        C  0.44962742  0.75343665  0.40942898    -0.12000
C789        C  0.26810063  0.69177533  0.08048636    -0.10400
C790        C  0.24793521  0.69564429  0.09602169    -0.12000
C791        C  0.44804491  0.75350245  0.09843062    -0.10400
C792        C  0.42404048  0.73300779  0.08320305    -0.12000
C793        C  0.07536929  0.76901633  0.42567898    -0.10400
C794        C  0.05152725  0.74859220  0.41007644    -0.12000
C795        C  0.07658711  0.76715540  0.07519825    -0.10400
C796        C  0.05263697  0.74734020  0.09128925    -0.12000
C797        C  0.19313921  0.92409033  0.42566806    -0.10400
C798        C  0.19636412  0.94790440  0.41013404    -0.12000
C799        C  0.25138863  0.80350335  0.41006366    -0.10400
C800        C  0.23071856  0.80657989  0.42546807    -0.12000
C801        C  0.19524632  0.94783180  0.09021561    -0.10400
C802        C  0.19108979  0.92376666  0.07451792    -0.12000
C803        C  0.25378446  0.80534638  0.08927134    -0.10400
C804        C  0.23351517  0.80927202  0.07404145    -0.12000
Fe805      Fe  0.21226582  0.86567283  0.50444101     1.65800
Fe806      Fe  0.13371410  0.84601670  0.99600080     1.73200
Fe807      Fe  0.15399826  0.78759588  0.99595700     1.54400
O808        O  0.18457813  0.79236758  0.95125164    -0.78800
O809        O  0.10455377  0.81152804  0.54378503    -0.77200
O810        O  0.22473254  0.84236567  0.95614414    -0.81400
O811        O  0.22287148  0.84414936  0.54927065    -0.76200
O812        O  0.11752851  0.77518112  0.95650237    -0.78000
O813        O  0.15533324  0.87805366  0.54942144    -0.80700
C814        C  0.21308939  0.81521977  0.55767267     1.00000
C815        C  0.21226575  0.81449044  0.94225376     1.07500
O816        O  0.16670637  0.83330710  0.99583372    -1.09700
O817        O  0.15750459  0.88231735  0.95631235    -0.72100
O818        O  0.20745965  0.89217777  0.95111002    -0.75600
O819        O  0.18807966  0.79224102  0.54332466    -0.76300
C820        C  0.18529417  0.89770574  0.94222734     0.98900
O821        O  0.20719531  0.89503776  0.54377126    -0.74300
O822        O  0.10766504  0.81531842  0.95152282    -0.79500
C823        C  0.10257051  0.78650333  0.55806032     1.01600
C824        C  0.10207005  0.78762221  0.94261168     1.07500
O825        O  0.12148399  0.77655521  0.54928192    -0.75100
C826        C  0.18422046  0.89702121  0.55807529     1.05800
Fe827      Fe  0.36673738  0.65480007  0.50185524     1.65800
Fe828      Fe  0.28822973  0.63454279  0.50170231     1.73200
Fe829      Fe  0.34651260  0.71315698  0.50247641     1.54400
O830        O  0.37778050  0.72329766  0.54799580    -0.78800
O831        O  0.27734556  0.65648589  0.95927303    -0.77200
O832        O  0.39579681  0.68931071  0.54138155    -0.81400
O833        O  0.39597319  0.68766293  0.96277189    -0.76200
O834        O  0.31142611  0.70710625  0.54139934    -0.78000
O835        O  0.29485670  0.60687107  0.95990199    -0.80700
C836        C  0.39910872  0.71360362  0.95006576     1.00000
C837        C  0.39703656  0.71370612  0.55646224     1.07500
O838        O  0.33383510  0.66750592  0.50189178    -1.09700
O839        O  0.29370615  0.60444016  0.53969859    -0.72100
O840        O  0.34570567  0.62274994  0.54668727    -0.75600
O841        O  0.38146322  0.72462720  0.96048401    -0.76300
C842        C  0.31687138  0.60296082  0.55443995     0.98900
O843        O  0.34622554  0.62091320  0.96110621    -0.74300
O844        O  0.27774337  0.65496462  0.54776729    -0.79500
C845        C  0.28850401  0.68500077  0.94798828     1.01600
C846        C  0.28710169  0.68375733  0.55640178     1.07500
O847        O  0.31463248  0.70786418  0.96010650    -0.75100
C848        C  0.31807973  0.60388087  0.94853062     1.05800
C849        C  0.47053227  0.49706007  0.57277094     0.05100
C850        C  0.99943367  0.52843751  0.60269867     0.05100
C851        C  0.02914479  0.52995733  0.60271029     0.05100
C852        C  0.03068903  0.50177108  0.60229777     0.05100
C853        C  0.00200100  0.97239911  0.60459823     0.05100
C854        C  0.47221216  0.97009548  0.58991277     0.05100
C855        C  0.27972440  0.97295504  0.63697673     0.83000
N856        N  0.30622875  0.97093893  0.63080774    -0.75300
C857        C  0.33269861  0.49306537  0.60367766     0.85500
N858        N  0.33226600  0.52005962  0.59487046    -0.75200
C859        C  0.30665861  0.52292128  0.60388220     0.85600
N860        N  0.28119553  0.49844555  0.62176845    -0.76900
C861        C  0.19582771  0.97648378  0.61061720     0.83000
N862        N  0.22235552  0.49933526  0.62691088    -0.75300
C863        C  0.22159520  0.52597819  0.63749654     0.85500
N864        N  0.19450150  0.52719943  0.63276426    -0.75200
C865        C  0.16829355  0.50214177  0.61737686     0.85600
N866        N  0.16904694  0.97828746  0.60637820    -0.76900
C867        C  0.22060071  0.69461359  0.61389568     0.83000
N868        N  0.19189733  0.66790100  0.61014587    -0.75300
C869        C  0.16515895  0.66754618  0.62181668     0.85500
N870        N  0.16690130  0.69399835  0.63719625    -0.75200
C871        C  0.19546135  0.72097850  0.64098900     0.85600
N872        N  0.22244092  0.72130903  0.62934102    -0.76900
C873        C  0.46953299  0.68967178  0.62826726     0.83000
N874        N  0.99813388  0.72026853  0.62646618    -0.75300
C875        C  0.02337647  0.71888581  0.61151875     0.85500
N876        N  0.02162127  0.69033633  0.60733640    -0.75200
C877        C  0.99507285  0.66326976  0.61800693     0.85600
N878        N  0.46716049  0.66143016  0.61884662    -0.76900
C879        C  0.28197515  0.80405604  0.60812774     0.83000
N880        N  0.28102062  0.77798021  0.62433093    -0.75300
C881        C  0.30858285  0.77848450  0.63352313     0.85500
N882        N  0.33691398  0.80510798  0.62664989    -0.75200
C883        C  0.33781381  0.83098325  0.61046388     0.85600
N884        N  0.31044077  0.83042003  0.60124319    -0.76900
C885        C  0.02760672  0.80617906  0.63893629     0.83000
N886        N  0.00091997  0.77915256  0.62742421    -0.75300
C887        C  0.47565958  0.78135633  0.60998075     0.85500
N888        N  0.47831486  0.81010124  0.60331097    -0.75200
C889        C  0.00396613  0.83630323  0.62095263     0.85600
N890        N  0.02896410  0.83466202  0.63570986    -0.76900
Fe891      Fe  0.34694039  0.63235690  0.75236686     1.65800
Fe892      Fe  0.28944337  0.65395623  0.75076277     1.73200
Fe893      Fe  0.36851613  0.71152062  0.74991224     1.54400
O894        O  0.39566189  0.70698419  0.79309467    -0.78800
O895        O  0.29491385  0.68729750  0.70934654    -0.77200
O896        O  0.38329879  0.65611063  0.79203984    -0.81400
O897        O  0.37930558  0.65278936  0.70770054    -0.76200
O898        O  0.34602526  0.72448314  0.79102323    -0.78000
O899        O  0.27774417  0.62049279  0.70757299    -0.80700
C900        C  0.39708807  0.68106501  0.69579527     1.00000
C901        C  0.40003879  0.68449152  0.80395836     1.07500
O902        O  0.33498281  0.66596432  0.75109419    -1.09700
O903        O  0.27688659  0.61874259  0.79207455    -0.72100
O904        O  0.31599371  0.60739553  0.79716955    -0.75600
O905        O  0.39538796  0.70472352  0.70839851    -0.76300
C906        C  0.28885860  0.60307661  0.80662990     0.98900
O907        O  0.31259543  0.60343145  0.71263400    -0.74300
O908        O  0.29509117  0.68595674  0.79387455    -0.79500
C909        C  0.31808676  0.71269826  0.69610565     1.01600
C910        C  0.31793890  0.71284871  0.80411209     1.07500
O911        O  0.34664864  0.72307296  0.70654665    -0.75100
C912        C  0.28765233  0.60164496  0.69846557     1.05800
Fe913      Fe  0.21297116  0.84596621  0.75424258     1.65800
Fe914      Fe  0.13406433  0.78805370  0.75348169     1.73200
Fe915      Fe  0.15512632  0.86699948  0.75294051     1.54400
O916        O  0.18942565  0.89578837  0.79294640    -0.78800
O917        O  0.10875254  0.79308936  0.70839063    -0.77200
O918        O  0.22381260  0.87818439  0.79878009    -0.81400
O919        O  0.22603379  0.88247898  0.71440035    -0.76200
O920        O  0.12253417  0.84596840  0.79731769    -0.78000
O921        O  0.15810208  0.77536888  0.71432007    -0.80700
C922        C  0.21374719  0.89785465  0.69974759     1.00000
C923        C  0.21410445  0.89726113  0.80759621     1.07500
O924        O  0.16738610  0.83366989  0.75350000    -1.09700
O925        O  0.15473652  0.77677483  0.79852011    -0.72100
O926        O  0.20679917  0.81130392  0.79420307    -0.75600
O927        O  0.18612275  0.89255426  0.70844811    -0.76300
C928        C  0.18336410  0.78640294  0.80811359     0.98900
O929        O  0.20823314  0.81530245  0.70980651    -0.74300
O930        O  0.10511167  0.79391675  0.79279879    -0.79500
C931        C  0.10356506  0.81536917  0.69894371     1.01600
C932        C  0.10350230  0.81725086  0.80669281     1.07500
O933        O  0.11895488  0.84321248  0.71296670    -0.75100
C934        C  0.18602888  0.78774444  0.70057215     1.05800
C935        C  0.46944374  0.99771213  0.91138685     0.05100
C936        C  0.47194600  0.97005288  0.90968860     0.05100
C937        C  0.50210747  0.97256612  0.90870464     0.05100
C938        C  0.03019878  0.00271830  0.90927682     0.05100
C939        C  0.02777373  0.52971520  0.90981290     0.05100
C940        C  0.50359605  0.52971218  0.83073716     0.05100
C941        C  0.22219558  0.52900409  0.86952564     0.83000
N942        N  0.22155327  0.00199110  0.87428940    -0.75300
C943        C  0.19545397  0.97681944  0.89027140     0.85500
N944        N  0.16896478  0.97876508  0.89674440    -0.75200
C945        C  0.16829976  0.00551345  0.88726604     0.85600
N946        N  0.19563860  0.53103995  0.87543696    -0.76900
C947        C  0.30995025  0.53060800  0.88288318     0.83000
N948        N  0.33840346  0.53288748  0.87504338    -0.75300
C949        C  0.33122418  0.99500100  0.89521150     0.85500
N950        N  0.30553569  0.97031584  0.87847394    -0.75200
C951        C  0.27925407  0.97237816  0.87069243     0.85600
N952        N  0.27887382  0.99956554  0.87953481    -0.76900
C953        C  0.47946791  0.69524868  0.85577164     0.83000
N954        N  0.50407676  0.72097223  0.87314041    -0.75300
C955        C  0.02254140  0.71860411  0.89176650     0.85500
N956        N  0.02091134  0.69023543  0.89786441    -0.75200
C957        C  0.50847123  0.66836294  0.85839716     0.85600
N958        N  0.48185021  0.66909242  0.84843806    -0.76900
C959        C  0.21973397  0.69517291  0.89586479     0.83000
N960        N  0.22050085  0.72115872  0.87965543    -0.75300
C961        C  0.19284200  0.72034691  0.87019926     0.85500
N962        N  0.16462246  0.69355963  0.87686324    -0.75200
C963        C  0.16388474  0.66777792  0.89306735     0.85600
N964        N  0.19134913  0.66860249  0.90253773    -0.76900
C965        C  0.02827624  0.80766538  0.86923881     0.83000
N966        N  0.03018604  0.83609147  0.87583619    -0.75300
C967        C  0.50615630  0.83726178  0.89136680     0.85500
N968        N  0.47966832  0.81001917  0.90186919    -0.75200
C969        C  0.47788259  0.78148982  0.89675195     0.85600
N970        N  0.50295874  0.78026402  0.88107298    -0.76900
C971        C  0.28096677  0.80422356  0.88992427     0.83000
N972        N  0.28012226  0.77803994  0.87433979    -0.75300
C973        C  0.30773819  0.77887279  0.86463908     0.85500
N974        N  0.33596547  0.80588781  0.87041078    -0.75200
C975        C  0.33677113  0.83187324  0.88591154     0.85600
N976        N  0.30936332  0.83100096  0.89569094    -0.76900
C977        C  0.50735502  0.56116110  0.83437501    -0.15700
C978        C  0.50954368  0.58679323  0.83877439     0.08400
C979        C  0.51071960  0.61604418  0.84508407     0.10200
C980        C  0.51041951  0.64033265  0.85103156    -0.16500
C981        C  0.05637910  0.56062050  0.90909949    -0.15700
C982        C  0.08056351  0.58590330  0.90726966     0.08400
C983        C  0.10927059  0.61496402  0.90364214     0.10200
C984        C  0.13407451  0.63933431  0.89935916    -0.16500
C985        C  0.44347691  0.93913383  0.90686256    -0.15700
C986        C  0.41956593  0.91382849  0.90298108     0.08400
C987        C  0.39121156  0.88474159  0.89730160     0.10200
C988        C  0.36659362  0.86035402  0.89207713    -0.16500
C989        C  0.43844150  0.99514459  0.91137427    -0.15700
C990        C  0.41295301  0.99360021  0.91002670     0.08400
C991        C  0.38368366  0.99279506  0.90665680     0.10200
C992        C  0.35930946  0.99317208  0.90220588    -0.16500
C993        C  0.06114988  0.00518021  0.90728702    -0.15700
C994        C  0.08651884  0.00662242  0.90411473     0.08400
C995        C  0.11565412  0.00737996  0.89898866     0.10200
C996        C  0.14001022  0.00709023  0.89383734    -0.16500
C997        C  0.50462453  0.94408295  0.90631140    -0.15700
C998        C  0.50624974  0.92018928  0.90370619     0.08400
C999        C  0.50737170  0.89184821  0.89994718     0.10200
C1000       C  0.50743112  0.86720842  0.89622309    -0.16500
C1001       C  0.18955530  0.76673770  0.83393949    -0.10400
C1002       C  0.19280596  0.74704228  0.85173872    -0.12000
C1003       C  0.05466296  0.80736477  0.85040738    -0.10400
C1004       C  0.07754998  0.81080048  0.83241045    -0.12000
C1005       C  0.25273904  0.94599933  0.85162321    -0.10400
C1006       C  0.23335458  0.92314221  0.83349265    -0.12000
C1007       C  0.42692818  0.69173912  0.82847013    -0.10400
C1008       C  0.45109641  0.69542705  0.84348480    -0.12000
C1009       C  0.26944368  0.57778612  0.83320766    -0.10400
C1010       C  0.24941782  0.55531980  0.85132908    -0.12000
C1011       C  0.30775175  0.75189180  0.84710682    -0.10400
C1012       C  0.31138178  0.73229196  0.82975099    -0.12000
C1013       C  0.07750325  0.80849283  0.67314662    -0.10400
C1014       C  0.05435300  0.80525542  0.65589872    -0.12000
C1015       C  0.30839454  0.75167406  0.65203004    -0.10400
C1016       C  0.31163372  0.73204350  0.67001908    -0.12000
C1017       C  0.44362139  0.68961699  0.64874859    -0.10400
C1018       C  0.42168515  0.68667203  0.66833040    -0.12000
C1019       C  0.19307214  0.76843782  0.67528641    -0.10400
C1020       C  0.19642685  0.74855755  0.65818838    -0.12000
C1021       C  0.24872429  0.55268068  0.65512989    -0.10400
C1022       C  0.26836101  0.57567378  0.67276944    -0.12000
C1023       C  0.23313921  0.92382283  0.67382848    -0.10400
C1024       C  0.25277581  0.94667238  0.65578374    -0.12000
C1025       C  0.05803488  0.56043997  0.60498877    -0.15700
C1026       C  0.08205778  0.58565273  0.60827075     0.08400
C1027       C  0.11038537  0.61477429  0.61311512     0.10200
C1028       C  0.13506679  0.63920522  0.61737301    -0.16500
C1029       C  0.99389013  0.63342432  0.61393257    -0.15700
C1030       C  0.99438950  0.60905108  0.61049161     0.08400
C1031       C  0.99608778  0.58112330  0.60683152     0.10200
C1032       C  0.99778359  0.55732351  0.60440397    -0.16500
C1033       C  0.06121923  0.50321981  0.60349098    -0.15700
C1034       C  0.08629506  0.50387054  0.60554529     0.08400
C1035       C  0.11524916  0.50395389  0.60900736     0.10200
C1036       C  0.13965452  0.50344073  0.61261040    -0.16500
C1037       C  0.00378399  0.94361587  0.60724635    -0.15700
C1038       C  0.00497240  0.91955742  0.61018234     0.08400
C1039       C  0.00568575  0.89110620  0.61407727     0.10200
C1040       C  0.00544874  0.86633986  0.61739768    -0.16500
C1041       C  0.36764023  0.85931989  0.60388093    -0.15700
C1042       C  0.39206055  0.88394933  0.59894623     0.08400
C1043       C  0.42007420  0.91348760  0.59427284     0.10200
C1044       C  0.44376668  0.93910004  0.59153408    -0.16500
C1045       C  0.36030443  0.49073555  0.59469722    -0.15700
C1046       C  0.38440780  0.49034971  0.58766272     0.08400
C1047       C  0.41356298  0.49147268  0.58057665     0.10200
C1048       C  0.43913524  0.49353897  0.57601543    -0.16500
C1049       C  0.31216764  0.57867102  0.92181861    -0.10400
C1050       C  0.30947911  0.55648958  0.90288492    -0.12000
C1051       C  0.30667072  0.55161747  0.59270414    -0.10400
C1052       C  0.31017363  0.57594626  0.57839048    -0.12000
C1053       C  0.24840467  0.69551431  0.90788059    -0.10400
C1054       C  0.26894948  0.69195615  0.92295240    -0.12000
C1055       C  0.42565031  0.73296179  0.92511552    -0.10400
C1056       C  0.44967440  0.75315574  0.90964931    -0.12000
C1057       C  0.26780568  0.69035819  0.58221873    -0.10400
C1058       C  0.24823569  0.69434733  0.59905154    -0.12000
C1059       C  0.44717979  0.75320856  0.59745118    -0.10400
C1060       C  0.42321980  0.73308398  0.58182614    -0.12000
C1061       C  0.07517894  0.76795650  0.91820103    -0.10400
C1062       C  0.05094804  0.74728732  0.90353786    -0.12000
C1063       C  0.07592526  0.76695438  0.58285793    -0.10400
C1064       C  0.05173484  0.74698427  0.59832559    -0.12000
C1065       C  0.19229620  0.92441156  0.91753365    -0.10400
C1066       C  0.19569871  0.94847542  0.90251654    -0.12000
C1067       C  0.25241446  0.80386304  0.90251273    -0.10400
C1068       C  0.23187196  0.80735179  0.91763697    -0.12000
C1069       C  0.19546483  0.94799887  0.59780964    -0.10400
C1070       C  0.19136482  0.92376288  0.58267019    -0.12000
C1071       C  0.25341740  0.80411662  0.59649074    -0.10400
C1072       C  0.23294583  0.80806758  0.58191467    -0.12000
Fe1073     Fe  0.71261409  0.36642861  0.00213041     1.65800
Fe1074     Fe  0.63393746  0.34704132  0.50064871     1.73200
Fe1075     Fe  0.65378031  0.28821120  0.50091003     1.54400
O1076       O  0.68570638  0.29262610  0.45833763    -0.78800
O1077       O  0.60682250  0.31329169  0.04664011    -0.77200
O1078       O  0.72413726  0.34355314  0.45880281    -0.81400
O1079       O  0.72510150  0.34445738  0.04457873    -0.76200
O1080       O  0.61908371  0.27636106  0.45905735    -0.78000
O1081       O  0.65653830  0.38008359  0.04565732    -0.80700
C1082       C  0.71387533  0.31618138  0.05694140     1.00000
C1083       C  0.71231883  0.31515637  0.44693642     1.07500
O1084       O  0.66677492  0.33405440  0.50055212    -1.09700
O1085       O  0.65653193  0.38111765  0.45819144    -0.72100
O1086       O  0.70745365  0.39353753  0.45670125    -0.75600
O1087       O  0.68735197  0.29315451  0.04597756    -0.76300
C1088       C  0.68471281  0.39738563  0.44547022     0.98900
O1089       O  0.70794267  0.39438686  0.04402119    -0.74300
O1090       O  0.60610971  0.31446975  0.45864101    -0.79500
C1091       C  0.60325494  0.28687467  0.05809817     1.01600
C1092       C  0.60221739  0.28792655  0.44722846     1.07500
O1093       O  0.62018583  0.27549065  0.04610579    -0.75100
C1094       C  0.68512764  0.39756816  0.05647958     1.05800
Fe1095     Fe  0.86625413  0.15399917  0.99870181     1.65800
Fe1096     Fe  0.78776938  0.13406737  0.99913567     1.73200
Fe1097     Fe  0.84634175  0.21258740  0.99805537     1.54400
O1098       O  0.87818076  0.22338761  0.04325570    -0.78800
O1099       O  0.77720516  0.15460731  0.45781888    -0.77200
O1100       O  0.89583793  0.18905578  0.03735480    -0.81400
O1101       O  0.89541475  0.18884493  0.46502329    -0.76200
O1102       O  0.81162962  0.20737713  0.03708937    -0.78000
O1103       O  0.79285526  0.10392553  0.46567391    -0.80700
C1104       C  0.89664974  0.21325218  0.44985479     1.00000
C1105       C  0.89744855  0.21380549  0.05184862     1.07500
O1106       O  0.83346214  0.16688949  0.99850395    -1.09700
O1107       O  0.79340284  0.10474919  0.03821674    -0.72100
O1108       O  0.84539616  0.12262094  0.04433890    -0.75600
O1109       O  0.87716540  0.22261567  0.45796910    -0.76300
C1110       C  0.81659496  0.10335416  0.05299811     0.98900
O1111       O  0.84483977  0.12247683  0.45805012    -0.74300
O1112       O  0.77766901  0.15540548  0.04443680    -0.79500
C1113       C  0.78646220  0.18349214  0.44976164     1.01600
C1114       C  0.78719125  0.18434421  0.05235143     1.07500
O1115       O  0.81078448  0.20668172  0.46500616    -0.75100
C1116       C  0.81594177  0.10270996  0.45040307     1.05800
C1117       C  0.97080483  0.99853904  0.09526165     0.05100
C1118       C  0.49824164  0.02819224  0.08969619     0.05100
C1119       C  0.52847973  0.03083332  0.09038222     0.05100
C1120       C  0.53112799  0.00323602  0.09012452     0.05100
C1121       C  0.49893857  0.47080175  0.15187654     0.05100
C1122       C  0.97284060  0.47045784  0.09279127     0.05100
C1123       C  0.77926325  0.47133483  0.13377707     0.83000
N1124       N  0.80600411  0.46983383  0.12726024    -0.75300
C1125       C  0.83278301  0.99627440  0.11389213     0.85500
N1126       N  0.83231799  0.02283823  0.10294178    -0.75200
C1127       C  0.80587139  0.02504931  0.10826333     0.85600
N1128       N  0.77958257  0.00031636  0.12459533    -0.76900
C1129       C  0.69478722  0.47362602  0.11658299     0.83000
N1130       N  0.72206534  0.00115618  0.12516533    -0.75300
C1131       C  0.72141087  0.02789415  0.13564151     0.85500
N1132       N  0.69473704  0.02963474  0.12942890    -0.75200
C1133       C  0.66890378  0.00503668  0.11270010     0.85600
N1134       N  0.66648234  0.47248478  0.12084779    -0.76900
C1135       C  0.71973817  0.19566708  0.10630235     0.83000
N1136       N  0.69099163  0.16933502  0.10060815    -0.75300
C1137       C  0.66402402  0.16898834  0.11130051     0.85500
N1138       N  0.66563762  0.19505452  0.12774101    -0.75200
C1139       C  0.69424261  0.22162942  0.13344784     0.85600
N1140       N  0.72140539  0.22193856  0.12277232    -0.76900
C1141       C  0.97313811  0.19399351  0.13767421     0.83000
N1142       N  0.49932608  0.22013277  0.12703798    -0.75300
C1143       C  0.52412015  0.21878319  0.11062687     0.85500
N1144       N  0.52155721  0.19014523  0.10367914    -0.75200
C1145       C  0.49462592  0.16292879  0.11305551     0.85600
N1146       N  0.97155097  0.16554004  0.13265429    -0.76900
C1147       C  0.78207632  0.30547244  0.11031619     0.83000
N1148       N  0.78053346  0.27908227  0.12640034    -0.75300
C1149       C  0.80778085  0.27921293  0.13632209     0.85500
N1150       N  0.83636125  0.30575683  0.13032385    -0.75200
C1151       C  0.83784186  0.33195152  0.11430983     0.85600
N1152       N  0.81078996  0.33176169  0.10430874    -0.76900
C1153       C  0.52532893  0.30525279  0.14251140     0.83000
N1154       N  0.50021286  0.27883221  0.12703317    -0.75300
C1155       C  0.97635458  0.28146391  0.10581638     0.85500
N1156       N  0.97868551  0.31020193  0.10044927    -0.75200
C1157       C  0.49692627  0.33254902  0.13693894     0.85600
N1158       N  0.52351715  0.33198366  0.14745823    -0.76900
Fe1159     Fe  0.84567187  0.13302990  0.25322065     1.65800
Fe1160     Fe  0.78786017  0.15432151  0.25292803     1.73200
Fe1161     Fe  0.86695142  0.21214985  0.25367589     1.54400
O1162       O  0.89407710  0.20639951  0.29590290    -0.78800
O1163       O  0.79346487  0.18659863  0.21002551    -0.77200
O1164       O  0.87963993  0.15491318  0.29599085    -0.81400
O1165       O  0.88055528  0.15572787  0.21145331    -0.76200
O1166       O  0.84474105  0.22399379  0.29611899    -0.78000
O1167       O  0.77560529  0.11948167  0.21123818    -0.80700
C1168       C  0.89762401  0.18415157  0.19959898     1.00000
C1169       C  0.89694885  0.18323060  0.30786255     1.07500
O1170       O  0.83349832  0.16649891  0.25324321    -1.09700
O1171       O  0.77587076  0.12044194  0.29574837    -0.72100
O1172       O  0.81261638  0.10561237  0.29513686    -0.75600
O1173       O  0.89415577  0.20700513  0.21123807    -0.76300
C1174       C  0.78676459  0.10295497  0.30737546     0.98900
O1175       O  0.81342132  0.10615109  0.21037743    -0.74300
O1176       O  0.79319611  0.18728708  0.29466759    -0.79500
C1177       C  0.81645131  0.21308880  0.19893478     1.01600
C1178       C  0.81625822  0.21312630  0.30717216     1.07500
O1179       O  0.84462920  0.22451507  0.21161223    -0.75100
C1180       C  0.78699719  0.10262740  0.19897364     1.05800
Fe1181     Fe  0.71311424  0.34518404  0.25162746     1.65800
Fe1182     Fe  0.63409901  0.28729172  0.25054273     1.73200
Fe1183     Fe  0.65525457  0.36633949  0.25108490     1.54400
O1184       O  0.68885936  0.39436543  0.29218901    -0.78800
O1185       O  0.60800252  0.29277454  0.20683169    -0.77200
O1186       O  0.72461103  0.37833602  0.29533123    -0.81400
O1187       O  0.72571809  0.38073059  0.21081901    -0.76200
O1188       O  0.62182654  0.34450985  0.29449948    -0.78000
O1189       O  0.65730709  0.27518593  0.20967136    -0.80700
C1190       C  0.71384140  0.39682051  0.19730592     1.00000
C1191       C  0.71421607  0.39655378  0.30561376     1.07500
O1192       O  0.66748424  0.33293799  0.25109512    -1.09700
O1193       O  0.65541997  0.27526714  0.29415115    -0.72100
O1194       O  0.70719119  0.31133240  0.29252668    -0.75600
O1195       O  0.68691288  0.39263644  0.20749957    -0.76300
C1196       C  0.68389089  0.28570215  0.30513899     0.98900
O1197       O  0.70813545  0.31382935  0.20788981    -0.74300
O1198       O  0.60583591  0.29268105  0.29127921    -0.79500
C1199       C  0.60363056  0.31544438  0.19678111     1.01600
C1200       C  0.60348850  0.31578779  0.30450591     1.07500
O1201       O  0.61977949  0.34344340  0.21012588    -0.75100
C1202       C  0.68546567  0.28710893  0.19690023     1.05800
C1203       C  0.97026156  0.49849183  0.41185252     0.05100
C1204       C  0.97214564  0.47047617  0.41162558     0.05100
C1205       C  0.00207078  0.47244738  0.41249469     0.05100
C1206       C  0.52734026  0.49820434  0.36077492     0.05100
C1207       C  0.52751443  0.03014542  0.41613181     0.05100
C1208       C  0.99762316  0.02722251  0.41588010     0.05100
C1209       C  0.72077087  0.02831056  0.37010087     0.83000
N1210       N  0.72102833  0.49936511  0.37306249    -0.75300
C1211       C  0.69393175  0.47284958  0.38471305     0.85500
N1212       N  0.66566363  0.47198483  0.38225103    -0.75200
C1213       C  0.66428617  0.49726340  0.36803818     0.85600
N1214       N  0.69393046  0.02978233  0.37618881    -0.76900
C1215       C  0.80508221  0.02365745  0.39777521     0.83000
N1216       N  0.83130534  0.02131757  0.40464971    -0.75300
C1217       C  0.83165127  0.49512934  0.39228872     0.85500
N1218       N  0.80606347  0.47034882  0.37549557    -0.75200
C1219       C  0.77909917  0.47157067  0.36943976     0.85600
N1220       N  0.77794633  0.49802552  0.38014900    -0.76900
C1221       C  0.97207752  0.19243693  0.37022718     0.83000
N1222       N  0.99892434  0.22007408  0.37967349    -0.75300
C1223       C  0.52334250  0.21910414  0.39531720     0.85500
N1224       N  0.52140908  0.19090264  0.40358120    -0.75200
C1225       C  0.99585907  0.16335511  0.39226608     0.85600
N1226       N  0.97070205  0.16416623  0.37646977    -0.76900
C1227       C  0.71862472  0.19433987  0.39588259     0.83000
N1228       N  0.72004546  0.22033159  0.37875445    -0.75300
C1229       C  0.69270151  0.21992726  0.36861149     0.85500
N1230       N  0.66417423  0.19355661  0.37550048    -0.75200
C1231       C  0.66283931  0.16779185  0.39259325     0.85600
N1232       N  0.68996574  0.16822717  0.40276285    -0.76900
C1233       C  0.52517965  0.30491847  0.35974882     0.83000
N1234       N  0.52350669  0.33186118  0.35637621    -0.75300
C1235       C  0.00388986  0.33668286  0.39073431     0.85500
N1236       N  0.97737567  0.30957943  0.40144383    -0.75200
C1237       C  0.97498855  0.28091488  0.39528219     0.85600
N1238       N  0.99952487  0.27942828  0.37833182    -0.76900
C1239       C  0.78036360  0.30480131  0.39366499     0.83000
N1240       N  0.77937601  0.27854378  0.37820244    -0.75300
C1241       C  0.80688849  0.27927325  0.36834880     0.85500
N1242       N  0.83520121  0.30628310  0.37388763    -0.75200
C1243       C  0.83615437  0.33237445  0.38933592     0.85600
N1244       N  0.80880392  0.33158174  0.39923402    -0.76900
C1245       C  0.99552162  0.05595037  0.41305484    -0.15700
C1246       C  0.99447514  0.08011016  0.40936671     0.08400
C1247       C  0.99407739  0.10872465  0.40391857     0.10200
C1248       C  0.99445399  0.13347077  0.39871616    -0.16500
C1249       C  0.55608484  0.06098877  0.41399449    -0.15700
C1250       C  0.57993814  0.08638124  0.41060336     0.08400
C1251       C  0.60817861  0.11555494  0.40509289     0.10200
C1252       C  0.63279941  0.13983631  0.39956148    -0.16500
C1253       C  0.94335862  0.43974017  0.40870183    -0.15700
C1254       C  0.91924559  0.41451700  0.40512296     0.08400
C1255       C  0.89073067  0.38540126  0.39996941     0.10200
C1256       C  0.86605179  0.36093857  0.39514974    -0.16500
C1257       C  0.93957945  0.49655513  0.40956869    -0.15700
C1258       C  0.91422485  0.49516851  0.40669921     0.08400
C1259       C  0.88489885  0.49412261  0.40237266     0.10200
C1260       C  0.86027434  0.49403014  0.39803158    -0.16500
C1261       C  0.55623080  0.49656447  0.36187535    -0.15700
C1262       C  0.58058920  0.49584002  0.36290353     0.08400
C1263       C  0.60947516  0.49579034  0.36432057     0.10200
C1264       C  0.63442997  0.49628254  0.36581524    -0.16500
C1265       C  0.00408345  0.44374086  0.41032072    -0.15700
C1266       C  0.00542362  0.41977094  0.40708767     0.08400
C1267       C  0.00620480  0.39142386  0.40199331     0.10200
C1268       C  0.00584317  0.36673543  0.39697644    -0.16500
C1269       C  0.69014736  0.26626112  0.33126626    -0.10400
C1270       C  0.69327843  0.24669332  0.34951709    -0.12000
C1271       C  0.55327925  0.30510801  0.34566989    -0.10400
C1272       C  0.57711811  0.30894200  0.32967216    -0.12000
C1273       C  0.75263385  0.44509197  0.35026167    -0.10400
C1274       C  0.73337871  0.42228599  0.33186221    -0.12000
C1275       C  0.92252941  0.18948566  0.33415872    -0.10400
C1276       C  0.94532411  0.19258659  0.35211634    -0.12000
C1277       C  0.76749930  0.07748587  0.33377997    -0.10400
C1278       C  0.74770241  0.05488459  0.35189519    -0.12000
C1279       C  0.80658360  0.25219266  0.35069151    -0.10400
C1280       C  0.80973358  0.23241344  0.33308318    -0.12000
C1281       C  0.57735903  0.30874114  0.17148301    -0.10400
C1282       C  0.55351187  0.30518052  0.15575837    -0.12000
C1283       C  0.80700717  0.25205452  0.15459878    -0.10400
C1284       C  0.81008203  0.23235934  0.17264511    -0.12000
C1285       C  0.94659309  0.19453730  0.15580738    -0.10400
C1286       C  0.92358404  0.19098474  0.17364937    -0.12000
C1287       C  0.69211725  0.26816935  0.17054131    -0.10400
C1288       C  0.69514294  0.24861669  0.15222817    -0.12000
C1289       C  0.74824713  0.05421665  0.15448776    -0.10400
C1290       C  0.76779408  0.07692579  0.17273683    -0.12000
C1291       C  0.73303904  0.42235063  0.17095453    -0.10400
C1292       C  0.75263935  0.44492552  0.15262506    -0.12000
C1293       C  0.55682439  0.06184476  0.09308310    -0.15700
C1294       C  0.58068229  0.08727237  0.09635909     0.08400
C1295       C  0.60908466  0.11646320  0.10111363     0.10200
C1296       C  0.63386698  0.14081664  0.10565152    -0.16500
C1297       C  0.49259887  0.13289818  0.10617405    -0.15700
C1298       C  0.49244265  0.10833356  0.10076917     0.08400
C1299       C  0.49367637  0.08022728  0.09538916     0.10200
C1300       C  0.49552429  0.05652783  0.09200519    -0.16500
C1301       C  0.56212434  0.00579615  0.09286822    -0.15700
C1302       C  0.58741012  0.00704055  0.09635327     0.08400
C1303       C  0.61639625  0.00741053  0.10148240     0.10200
C1304       C  0.64065220  0.00681766  0.10643686    -0.16500
C1305       C  0.49717322  0.44015324  0.15078480    -0.15700
C1306       C  0.49600645  0.41484902  0.14880942     0.08400
C1307       C  0.49530356  0.38562164  0.14538922     0.10200
C1308       C  0.49551751  0.36109031  0.14176369    -0.16500
C1309       C  0.86794278  0.36012178  0.10840133    -0.15700
C1310       C  0.89256562  0.38458962  0.10366136     0.08400
C1311       C  0.92072396  0.41395963  0.09872314     0.10200
C1312       C  0.94444603  0.43948038  0.09537813    -0.16500
C1313       C  0.86104143  0.99447963  0.10849997    -0.15700
C1314       C  0.88545717  0.99417438  0.10416928     0.08400
C1315       C  0.91464701  0.99497623  0.09980205     0.10200
C1316       C  0.94000400  0.99636601  0.09706609    -0.16500
C1317       C  0.80900080  0.07607971  0.42573333    -0.10400
C1318       C  0.80508624  0.05198621  0.41041090    -0.12000
C1319       C  0.80597558  0.05323949  0.09453185    -0.10400
C1320       C  0.80983093  0.07708156  0.07841368    -0.12000
C1321       C  0.74683407  0.19422486  0.40883301    -0.10400
C1322       C  0.76690862  0.19031854  0.42458530    -0.12000
C1323       C  0.92295889  0.23275195  0.42464034    -0.10400
C1324       C  0.94682790  0.25276169  0.40869688    -0.12000
C1325       C  0.76778673  0.19141098  0.07736738    -0.10400
C1326       C  0.74779398  0.19541434  0.09305917    -0.12000
C1327       C  0.94801925  0.25341941  0.09249674    -0.10400
C1328       C  0.92396913  0.23341661  0.07679931    -0.12000
C1329       C  0.57564747  0.26849141  0.42222393    -0.10400
C1330       C  0.55157251  0.24800050  0.40705257    -0.12000
C1331       C  0.57687550  0.26735986  0.08324200    -0.10400
C1332       C  0.55271651  0.24712127  0.09848106    -0.12000
C1333       C  0.69140660  0.42302298  0.41915162    -0.10400
C1334       C  0.69463765  0.44602581  0.40159281    -0.12000
C1335       C  0.75190228  0.30444925  0.40636819    -0.10400
C1336       C  0.73154317  0.30796499  0.42183786    -0.12000
C1337       C  0.69524120  0.44679920  0.09930012    -0.10400
C1338       C  0.69202815  0.42370758  0.08202350    -0.12000
C1339       C  0.75391492  0.30581221  0.09754290    -0.10400
C1340       C  0.73364535  0.30958659  0.08206780    -0.12000
Fe1341     Fe  0.71261629  0.36690370  0.50001761     1.65800
Fe1342     Fe  0.63366558  0.34551868  0.00392147     1.73200
Fe1343     Fe  0.65447721  0.28739005  0.00379537     1.54400
O1344       O  0.68684040  0.29217536  0.96152322    -0.78800
O1345       O  0.60652505  0.31476645  0.54314640    -0.77200
O1346       O  0.72420080  0.34351549  0.96021396    -0.81400
O1347       O  0.72416789  0.34479819  0.54319113    -0.76200
O1348       O  0.61990638  0.27529655  0.96165315    -0.78000
O1349       O  0.65687804  0.38159036  0.54249562    -0.80700
C1350       C  0.71281074  0.31634233  0.55489438     1.00000
C1351       C  0.71297171  0.31493632  0.94923194     1.07500
O1352       O  0.66693231  0.33310531  0.00330702    -1.09700
O1353       O  0.65537613  0.37949462  0.96124033    -0.72100
O1354       O  0.70656132  0.39300069  0.95928977    -0.75600
O1355       O  0.68661351  0.29344322  0.54290902    -0.76300
C1356       C  0.68337227  0.39619690  0.94820651     0.98900
O1357       O  0.70816938  0.39545980  0.54108276    -0.74300
O1358       O  0.60596528  0.31272572  0.96220374    -0.79500
C1359       C  0.60296148  0.28842331  0.55499775     1.01600
C1360       C  0.60261349  0.28652873  0.95028174     1.07500
O1361       O  0.61988804  0.27692921  0.54340046    -0.75100
C1362       C  0.68554080  0.39910032  0.55309470     1.05800
Fe1363     Fe  0.86582066  0.15371060  0.50365910     1.65800
Fe1364     Fe  0.78746618  0.13383907  0.50378993     1.73200
Fe1365     Fe  0.84599025  0.21227165  0.50362920     1.54400
O1366       O  0.88312474  0.22465972  0.54214929    -0.78800
O1367       O  0.77501627  0.15840006  0.96037105    -0.77200
O1368       O  0.89099040  0.18337458  0.54927660    -0.81400
O1369       O  0.89164819  0.18386865  0.95318493    -0.76200
O1370       O  0.81635382  0.20773318  0.54923849    -0.78000
O1371       O  0.79206898  0.10841929  0.95392942    -0.80700
C1372       C  0.89800465  0.21193801  0.94479139     1.00000
C1373       C  0.89755763  0.21154965  0.55721570     1.07500
O1374       O  0.83309801  0.16661492  0.50378589    -1.09700
O1375       O  0.79214804  0.10899004  0.54975426    -0.72100
O1376       O  0.84112286  0.11659096  0.54213687    -0.75600
O1377       O  0.88314650  0.22481254  0.95914929    -0.76300
C1378       C  0.81371115  0.10227961  0.55741434     0.98900
O1379       O  0.84151103  0.11692403  0.96019825    -0.74300
O1380       O  0.77502755  0.15868298  0.54180762    -0.79500
C1381       C  0.78775489  0.18593022  0.94531153     1.01600
C1382       C  0.78808552  0.18617641  0.55685938     1.07500
O1383       O  0.81599868  0.20767373  0.95285062    -0.75100
C1384       C  0.81378796  0.10208703  0.94570419     1.05800
C1385       C  0.97042946  0.99867720  0.60274264     0.05100
C1386       C  0.49749330  0.02801138  0.59038451     0.05100
C1387       C  0.52761151  0.03041967  0.58997696     0.05100
C1388       C  0.53001422  0.00268922  0.58993409     0.05100
C1389       C  0.50464655  0.47340062  0.57175689     0.05100
C1390       C  0.97274563  0.47058436  0.60278577     0.05100
C1391       C  0.77963935  0.47290787  0.63587637     0.83000
N1392       N  0.80670043  0.47163202  0.63130274    -0.75300
C1393       C  0.83159965  0.99577264  0.61523485     0.85500
N1394       N  0.83060203  0.02223606  0.60511166    -0.75200
C1395       C  0.80358087  0.02348958  0.61006056     0.85600
N1396       N  0.77731630  0.99796105  0.62517272    -0.76900
C1397       C  0.69679560  0.47966970  0.60098949     0.83000
N1398       N  0.72086102  0.00106900  0.62366139    -0.75300
C1399       C  0.72060236  0.02809485  0.63372596     0.85500
N1400       N  0.69406619  0.03008682  0.62764496    -0.75200
C1401       C  0.66798208  0.00544434  0.61143711     0.85600
N1402       N  0.67119506  0.48233373  0.59114451    -0.76900
C1403       C  0.71902270  0.19628827  0.60757154     0.83000
N1404       N  0.69071738  0.16972251  0.60055630    -0.75300
C1405       C  0.66315882  0.16874583  0.60980123     0.85500
N1406       N  0.66375547  0.19439277  0.62609181    -0.75200
C1407       C  0.69192387  0.22116422  0.63306832     0.85600
N1408       N  0.71963897  0.22209133  0.62389106    -0.76900
C1409       C  0.97368732  0.19436152  0.63731168     0.83000
N1410       N  0.50005550  0.22121094  0.62558958    -0.75300
C1411       C  0.52477549  0.22009174  0.60863471     0.85500
N1412       N  0.52268257  0.19157589  0.60213137    -0.75200
C1413       C  0.49623824  0.16424117  0.61251949     0.85600
N1414       N  0.97228567  0.16596872  0.63291351    -0.76900
C1415       C  0.77996955  0.30592475  0.61156014     0.83000
N1416       N  0.77860983  0.27917909  0.62620610    -0.75300
C1417       C  0.80579817  0.27982757  0.63767214     0.85500
N1418       N  0.83410764  0.30715987  0.63450599    -0.75200
C1419       C  0.83542401  0.33368321  0.61990085     0.85600
N1420       N  0.80845967  0.33304459  0.60838837    -0.76900
C1421       C  0.53037342  0.30995623  0.62748320     0.83000
N1422       N  0.50298984  0.28237966  0.61940316    -0.75300
C1423       C  0.97584062  0.27974042  0.61110627     0.85500
N1424       N  0.97676219  0.30791798  0.60672938    -0.75200
C1425       C  0.50874512  0.33922852  0.59965595     0.85600
N1426       N  0.53308694  0.33830969  0.61770830    -0.76900
Fe1427     Fe  0.84552779  0.13322378  0.75051544     1.65800
Fe1428     Fe  0.78730486  0.15395073  0.75079461     1.73200
Fe1429     Fe  0.86623827  0.21220027  0.75088764     1.54400
O1430       O  0.89316638  0.20685953  0.79372887    -0.78800
O1431       O  0.79256295  0.18702031  0.70917886    -0.77200
O1432       O  0.88016713  0.15574626  0.79250376    -0.81400
O1433       O  0.87975235  0.15572293  0.70812264    -0.76200
O1434       O  0.84348756  0.22414685  0.79254978    -0.78000
O1435       O  0.77553623  0.12014769  0.70795921    -0.80700
C1436       C  0.89726855  0.18429378  0.69708369     1.00000
C1437       C  0.89688277  0.18400453  0.80490499     1.07500
O1438       O  0.83302846  0.16645584  0.75072869    -1.09700
O1439       O  0.77525564  0.11904834  0.79235316    -0.72100
O1440       O  0.81317737  0.10584380  0.79302909    -0.75600
O1441       O  0.89406455  0.20716944  0.70924074    -0.76300
C1442       C  0.78670947  0.10215883  0.80440966     0.98900
O1443       O  0.81269636  0.10587482  0.70838526    -0.74300
O1444       O  0.79244996  0.18598178  0.79372942    -0.79500
C1445       C  0.81553423  0.21304995  0.69695851     1.01600
C1446       C  0.81525145  0.21254294  0.80493259     1.07500
O1447       O  0.84404927  0.22404710  0.70814218    -0.75100
C1448       C  0.78662845  0.10286420  0.69632308     1.05800
Fe1449     Fe  0.71118516  0.34542662  0.75014011     1.65800
Fe1450     Fe  0.63203760  0.28801148  0.74899594     1.73200
Fe1451     Fe  0.65384116  0.36721805  0.75016484     1.54400
O1452       O  0.68491163  0.39269808  0.79466721    -0.78800
O1453       O  0.60475809  0.29454112  0.70757434    -0.77200
O1454       O  0.72391232  0.38115478  0.79075567    -0.81400
O1455       O  0.72305561  0.37849406  0.70628839    -0.76200
O1456       O  0.61757413  0.34375390  0.79007022    -0.78000
O1457       O  0.65364870  0.27643628  0.70561016    -0.80700
C1458       C  0.71316365  0.39724186  0.69642829     1.00000
C1459       C  0.71201083  0.39709546  0.80455673     1.07500
O1460       O  0.66567789  0.33354590  0.74983424    -1.09700
O1461       O  0.65458625  0.27503293  0.79018709    -0.72100
O1462       O  0.70531976  0.31382973  0.79406653    -0.75600
O1463       O  0.68816485  0.39559538  0.71009693    -0.76300
C1464       C  0.68246401  0.28684827  0.80404840     0.98900
O1465       O  0.70552484  0.31162391  0.70945402    -0.74300
O1466       O  0.60540577  0.29292365  0.79223905    -0.79500
C1467       C  0.60315551  0.31815751  0.69448147     1.01600
C1468       C  0.60103450  0.31548820  0.80260375     1.07500
O1469       O  0.62132408  0.34653156  0.70567757    -0.75100
C1470       C  0.68226214  0.28653201  0.69574193     1.05800
C1471       C  0.96989423  0.49728471  0.90844318     0.05100
C1472       C  0.97224381  0.46950830  0.90845245     0.05100
C1473       C  0.00235048  0.47184115  0.90905239     0.05100
C1474       C  0.52686397  0.49529455  0.82836633     0.05100
C1475       C  0.52725229  0.03047145  0.91018795     0.05100
C1476       C  0.99757442  0.02790661  0.90849532     0.05100
C1477       C  0.72021726  0.02695450  0.86595066     0.83000
N1478       N  0.71792312  0.49630963  0.87312737    -0.75300
C1479       C  0.69060285  0.46907035  0.88243130     0.85500
N1480       N  0.66200604  0.46634099  0.87406702    -0.75200
C1481       C  0.66062553  0.49054020  0.85628727     0.85600
N1482       N  0.69356998  0.02892179  0.87107712    -0.76900
C1483       C  0.80369773  0.02318494  0.89353237     0.83000
N1484       N  0.83053976  0.02175542  0.89964322    -0.75300
C1485       C  0.83099517  0.49375194  0.88983177     0.85500
N1486       N  0.80484606  0.46933140  0.87339051    -0.75200
C1487       C  0.77824327  0.47137427  0.86788978     0.85600
N1488       N  0.77801231  0.49827004  0.87877826    -0.76900
C1489       C  0.97238334  0.19349059  0.86673233     0.83000
N1490       N  0.99910505  0.22085974  0.87733559    -0.75300
C1491       C  0.52322120  0.21912291  0.89742246     0.85500
N1492       N  0.52043260  0.19029180  0.90385696    -0.75200
C1493       C  0.99571908  0.16387175  0.88807257     0.85600
N1494       N  0.97086660  0.16509361  0.87208348    -0.76900
C1495       C  0.71852580  0.19631977  0.89414140     0.83000
N1496       N  0.71940917  0.22223902  0.87754389    -0.75300
C1497       C  0.69183667  0.22150912  0.86783400     0.85500
N1498       N  0.66354481  0.19479828  0.87451643    -0.75200
C1499       C  0.66266771  0.16904332  0.89103318     0.85600
N1500       N  0.69006765  0.16983174  0.90082266    -0.76900
C1501       C  0.52112682  0.30406702  0.85285918     0.83000
N1502       N  0.51787942  0.32929208  0.84285177    -0.75300
C1503       C  0.00579634  0.33661871  0.88997027     0.85500
N1504       N  0.97932054  0.30911374  0.89981495    -0.75200
C1505       C  0.97752501  0.28074798  0.89325445     0.85600
N1506       N  0.00261707  0.28003106  0.87670859    -0.76900
C1507       C  0.78060499  0.30416690  0.89462848     0.83000
N1508       N  0.77913876  0.27795067  0.87827555    -0.75300
C1509       C  0.80636341  0.27849861  0.86733184     0.85500
N1510       N  0.83486550  0.30529513  0.87266044    -0.75200
C1511       C  0.83630677  0.33132852  0.88896453     0.85600
N1512       N  0.80926236  0.33072786  0.89994318    -0.76900
C1513       C  0.99515655  0.05638992  0.90602261    -0.15700
C1514       C  0.99395365  0.08044670  0.90280745     0.08400
C1515       C  0.99356907  0.10904470  0.89807345     0.10200
C1516       C  0.99409871  0.13388242  0.89358447    -0.16500
C1517       C  0.55568375  0.06150428  0.90864565    -0.15700
C1518       C  0.57962247  0.08695983  0.90614366     0.08400
C1519       C  0.60807881  0.11620863  0.90190847     0.10200
C1520       C  0.63278863  0.14064807  0.89735592    -0.16500
C1521       C  0.94369693  0.43859407  0.90615755    -0.15700
C1522       C  0.91969591  0.41324225  0.90314974     0.08400
C1523       C  0.89118458  0.38408324  0.89865581     0.10200
C1524       C  0.86639033  0.35968907  0.89433444    -0.16500
C1525       C  0.93895259  0.49488162  0.90627485    -0.15700
C1526       C  0.91339435  0.49312099  0.90348249     0.08400
C1527       C  0.88389946  0.49183558  0.89925608     0.10200
C1528       C  0.85929965  0.49188407  0.89509683    -0.16500
C1529       C  0.55460286  0.49143890  0.83049703    -0.15700
C1530       C  0.57798472  0.48904174  0.83448148     0.08400
C1531       C  0.60594777  0.48764788  0.84114638     0.10200
C1532       C  0.63048310  0.48799445  0.84784725    -0.16500
C1533       C  0.00470927  0.44329032  0.90744067    -0.15700
C1534       C  0.00617373  0.41933198  0.90492325     0.08400
C1535       C  0.00710351  0.39096920  0.90070758     0.10200
C1536       C  0.00704908  0.36637030  0.89619305    -0.16500
C1537       C  0.68870151  0.26758609  0.83054537    -0.10400
C1538       C  0.69197966  0.24816239  0.84894878    -0.12000
C1539       C  0.54990112  0.30427880  0.84181987    -0.10400
C1540       C  0.57427356  0.30831635  0.82716668    -0.12000
C1541       C  0.75113451  0.44528404  0.84910487    -0.10400
C1542       C  0.73136192  0.42270932  0.83084328    -0.12000
C1543       C  0.92278345  0.19063089  0.83087491    -0.10400
C1544       C  0.94576844  0.19394367  0.84861004    -0.12000
C1545       C  0.76742936  0.07617977  0.83025010    -0.10400
C1546       C  0.74753794  0.05330590  0.84794252    -0.12000
C1547       C  0.80562051  0.25144666  0.84891070    -0.10400
C1548       C  0.80866352  0.23172761  0.83097573    -0.12000
C1549       C  0.57823389  0.31247141  0.66735562    -0.10400
C1550       C  0.55620382  0.30973166  0.64801129    -0.12000
C1551       C  0.80527313  0.25229052  0.65437240    -0.10400
C1552       C  0.80875174  0.23242432  0.67139047    -0.12000
C1553       C  0.94687090  0.19484085  0.65462985    -0.10400
C1554       C  0.92355305  0.19124135  0.67172440    -0.12000
C1555       C  0.68863091  0.26724568  0.66968769    -0.10400
C1556       C  0.69185772  0.24772563  0.65162963    -0.12000
C1557       C  0.74763662  0.05441050  0.65220283    -0.10400
C1558       C  0.76735984  0.07716344  0.67018830    -0.12000
C1559       C  0.73260038  0.42303625  0.67055250    -0.10400
C1560       C  0.75236932  0.44606214  0.65305514    -0.12000
C1561       C  0.55616414  0.06136401  0.59150516    -0.15700
C1562       C  0.58022060  0.08671262  0.59401769     0.08400
C1563       C  0.60874603  0.11586551  0.59835580     0.10200
C1564       C  0.63342282  0.14029415  0.60311638    -0.16500
C1565       C  0.49449540  0.13426054  0.60609650    -0.15700
C1566       C  0.49384113  0.10938958  0.60114554     0.08400
C1567       C  0.49406173  0.08070205  0.59612688     0.10200
C1568       C  0.49514067  0.05656582  0.59281342    -0.16500
C1569       C  0.56091683  0.00516325  0.59209724    -0.15700
C1570       C  0.58632202  0.00674472  0.59538324     0.08400
C1571       C  0.61550524  0.00767557  0.60046600     0.10200
C1572       C  0.63986865  0.00737328  0.60537332    -0.16500
C1573       C  0.50816301  0.44544512  0.57380377    -0.15700
C1574       C  0.51028919  0.42186503  0.57741619     0.08400
C1575       C  0.51148973  0.39373883  0.58365596     0.10200
C1576       C  0.51112882  0.36918176  0.59038854    -0.16500
C1577       C  0.86539216  0.36233142  0.61610807    -0.15700
C1578       C  0.89037666  0.38657749  0.61251940     0.08400
C1579       C  0.91931024  0.41524896  0.60825674     0.10200
C1580       C  0.94374391  0.44013668  0.60515053    -0.16500
C1581       C  0.86046696  0.99495865  0.61061062    -0.15700
C1582       C  0.88516819  0.99502264  0.60740085     0.08400
C1583       C  0.91447453  0.99581634  0.60464948     0.10200
C1584       C  0.93978081  0.99694556  0.60326318    -0.16500
C1585       C  0.80637328  0.07521645  0.92116692    -0.10400
C1586       C  0.80298635  0.05120943  0.90609189    -0.12000
C1587       C  0.80305736  0.05158274  0.59736808    -0.10400
C1588       C  0.80642913  0.07556054  0.58218434    -0.12000
C1589       C  0.74718264  0.19661312  0.90630740    -0.10400
C1590       C  0.76793016  0.19314681  0.92103445    -0.12000
C1591       C  0.92501396  0.23144636  0.92036556    -0.10400
C1592       C  0.94924165  0.25202380  0.90551032    -0.12000
C1593       C  0.76859462  0.19354718  0.58123846    -0.10400
C1594       C  0.74782582  0.19687773  0.59587265    -0.12000
C1595       C  0.94802386  0.25118109  0.59783050    -0.10400
C1596       C  0.92417215  0.23079295  0.58219348    -0.12000
C1597       C  0.57615143  0.26717067  0.92517755    -0.10400
C1598       C  0.55192803  0.24719313  0.90980247    -0.12000
C1599       C  0.57666285  0.26903299  0.58022568    -0.10400
C1600       C  0.55283633  0.24857049  0.59575297    -0.12000
C1601       C  0.68911788  0.42127381  0.92132249    -0.10400
C1602       C  0.69143613  0.44332974  0.90237224    -0.12000
C1603       C  0.75243562  0.30410105  0.90821573    -0.10400
C1604       C  0.73230223  0.30782571  0.92406329    -0.12000
C1605       C  0.69683850  0.45084645  0.59083069    -0.10400
C1606       C  0.69295029  0.42625162  0.57702795    -0.12000
C1607       C  0.75199682  0.30581980  0.59712309    -0.10400
C1608       C  0.73202960  0.30948489  0.58065202    -0.12000
Fe1609     Fe  0.71281093  0.86669444  0.00156112     1.65800
Fe1610     Fe  0.63347603  0.84583783  0.50117295     1.73200
Fe1611     Fe  0.65361905  0.78737234  0.50169139     1.54400
O1612       O  0.68441717  0.79197418  0.45741671    -0.78800
O1613       O  0.60898218  0.81602256  0.04694959    -0.77200
O1614       O  0.72468912  0.84183824  0.46256746    -0.81400
O1615       O  0.72599439  0.84258640  0.04019773    -0.76200
O1616       O  0.61758078  0.77516072  0.46159030    -0.78000
O1617       O  0.65839840  0.88306301  0.03953578    -0.80700
C1618       C  0.71315518  0.81542448  0.05625142     1.00000
C1619       C  0.71216259  0.81399658  0.44856113     1.07500
O1620       O  0.66637821  0.83307103  0.50138662    -1.09700
O1621       O  0.65780132  0.88247917  0.46211682    -0.72100
O1622       O  0.70738142  0.89144205  0.45611926    -0.75600
O1623       O  0.68484817  0.79366961  0.04925869    -0.76300
C1624       C  0.68544805  0.89739467  0.44758788     0.98900
O1625       O  0.70780727  0.89165570  0.04700870    -0.74300
O1626       O  0.60819655  0.81560460  0.45603509    -0.79500
C1627       C  0.60295570  0.78814543  0.05577240     1.01600
C1628       C  0.60263903  0.78793356  0.44703623     1.07500
O1629       O  0.61781611  0.77529919  0.04137813    -0.75100
C1630       C  0.68590368  0.89785087  0.05471484     1.05800
Fe1631     Fe  0.86605868  0.65358899  0.00153307     1.65800
Fe1632     Fe  0.78758305  0.63323720  0.00237128     1.73200
Fe1633     Fe  0.84576281  0.71182224  0.00073995     1.54400
O1634       O  0.88318221  0.72471165  0.03911893    -0.78800
O1635       O  0.77608284  0.65825064  0.46248979    -0.77200
O1636       O  0.89108358  0.68349427  0.04713051    -0.81400
O1637       O  0.89298275  0.68455910  0.45834976    -0.76200
O1638       O  0.81627676  0.70758019  0.04647123    -0.78000
O1639       O  0.79265241  0.60785809  0.45887489    -0.80700
C1640       C  0.89882492  0.71229453  0.44912205     1.00000
C1641       C  0.89767691  0.71178172  0.05456268     1.07500
O1642       O  0.83314180  0.66623992  0.00162335    -1.09700
O1643       O  0.79277026  0.60896591  0.04853874    -0.72100
O1644       O  0.84156215  0.61638333  0.03998307    -0.75600
O1645       O  0.88351580  0.72496289  0.46266475    -0.76300
C1646       C  0.81432773  0.60216682  0.05570520     0.98900
O1647       O  0.84261851  0.61762117  0.46353281    -0.74300
O1648       O  0.77517204  0.65825280  0.04029987    -0.79500
C1649       C  0.78871742  0.68600223  0.44807382     1.01600
C1650       C  0.78821248  0.68593768  0.05486392     1.07500
O1651       O  0.81651652  0.70806989  0.45680180    -0.75100
C1652       C  0.81463422  0.60214330  0.44983948     1.05800
C1653       C  0.97033700  0.49812806  0.09254068     0.05100
C1654       C  0.50238828  0.53047225  0.15132158     0.05100
C1655       C  0.53047441  0.52874387  0.15087950     0.05100
C1656       C  0.52875763  0.49891677  0.15127533     0.05100
C1657       C  0.50351266  0.97300884  0.08902583     0.05100
C1658       C  0.97291881  0.97066759  0.09463313     0.05100
C1659       C  0.77999718  0.97350251  0.13552666     0.83000
N1660       N  0.80669877  0.97168600  0.13018398    -0.75300
C1661       C  0.83171291  0.49473600  0.11078643     0.85500
N1662       N  0.83083036  0.52130942  0.10090169    -0.75200
C1663       C  0.80429996  0.52314439  0.10746041     0.85600
N1664       N  0.77844637  0.49811667  0.12395270    -0.76900
C1665       C  0.69607708  0.97641316  0.10836144     0.83000
N1666       N  0.72213113  0.50025105  0.12736346    -0.75300
C1667       C  0.72101318  0.52556503  0.14246717     0.85500
N1668       N  0.69255344  0.52406375  0.14675536    -0.75200
C1669       C  0.66537437  0.49764033  0.13594291     0.85600
N1670       N  0.66963419  0.97853804  0.10216459    -0.76900
C1671       C  0.72168970  0.69557507  0.11467958     0.83000
N1672       N  0.69464105  0.66704600  0.11850206    -0.75300
C1673       C  0.66822868  0.66541052  0.13382245     0.85500
N1674       N  0.66867538  0.69226223  0.14538501    -0.75200
C1675       C  0.69548547  0.72094884  0.14158753     0.85600
N1676       N  0.72208929  0.72261645  0.12622250    -0.76900
C1677       C  0.97344719  0.69449215  0.13405576     0.83000
N1678       N  0.50059405  0.72256307  0.12824489    -0.75300
C1679       C  0.52718691  0.72199163  0.11688287     0.85500
N1680       N  0.52851633  0.69489381  0.12103941    -0.75200
C1681       C  0.50367765  0.66856814  0.13657497     0.85600
N1682       N  0.97108449  0.66573769  0.12845298    -0.76900
C1683       C  0.78159449  0.80531621  0.10975120     0.83000
N1684       N  0.78044216  0.77906094  0.12561092    -0.75300
C1685       C  0.80782756  0.77963868  0.13583887     0.85500
N1686       N  0.83621399  0.80651143  0.13031178    -0.75200
C1687       C  0.83732867  0.83259223  0.11448443     0.85600
N1688       N  0.81011561  0.83196812  0.10419325    -0.76900
C1689       C  0.52863463  0.80825985  0.13585250     0.83000
N1690       N  0.50139525  0.78080317  0.12698657    -0.75300
C1691       C  0.97595746  0.78039890  0.10856728     0.85500
N1692       N  0.97738687  0.80873677  0.10309181    -0.75200
C1693       C  0.50618914  0.83784929  0.11149509     0.85600
N1694       N  0.53087556  0.83671208  0.12817182    -0.76900
Fe1695     Fe  0.84718949  0.63416913  0.25096893     1.65800
Fe1696     Fe  0.78922257  0.65503407  0.25119162     1.73200
Fe1697     Fe  0.86807485  0.71305713  0.25197428     1.54400
O1698       O  0.89608835  0.70688313  0.29249812    -0.78800
O1699       O  0.79454119  0.68597338  0.20668645    -0.77200
O1700       O  0.87903568  0.65483426  0.29608803    -0.81400
O1701       O  0.88379031  0.65819178  0.21169768    -0.76200
O1702       O  0.84651627  0.72412076  0.29614159    -0.78000
O1703       O  0.77675431  0.61883473  0.21135226    -0.80700
C1704       C  0.89943443  0.68615533  0.19805222     1.00000
C1705       C  0.89754808  0.68341520  0.30633394     1.07500
O1706       O  0.83483073  0.66742965  0.25132952    -1.09700
O1707       O  0.77795695  0.62249601  0.29559748    -0.72100
O1708       O  0.81239989  0.60495154  0.29010934    -0.75600
O1709       O  0.89438035  0.70844958  0.20777362    -0.76300
C1710       C  0.78755468  0.60327957  0.30433955     0.98900
O1711       O  0.81685498  0.60902655  0.20585395    -0.74300
O1712       O  0.79461062  0.68926765  0.29117334    -0.79500
C1713       C  0.81698141  0.71342574  0.19744974     1.01600
C1714       C  0.81777059  0.71420784  0.30537333     1.07500
O1715       O  0.84474293  0.72574853  0.21172679    -0.75100
C1716       C  0.78922160  0.60361788  0.19694705     1.05800
Fe1717     Fe  0.71318442  0.84662368  0.25205759     1.65800
Fe1718     Fe  0.63407468  0.78896992  0.25207563     1.73200
Fe1719     Fe  0.65560453  0.86812792  0.25226659     1.54400
O1720       O  0.68943422  0.89598815  0.29310293    -0.78800
O1721       O  0.60792663  0.79448242  0.20837099    -0.77200
O1722       O  0.72499407  0.87968784  0.29583785    -0.81400
O1723       O  0.72577665  0.88233417  0.21132777    -0.76200
O1724       O  0.62253060  0.84664348  0.29601803    -0.78000
O1725       O  0.65705047  0.77636375  0.21126917    -0.80700
C1726       C  0.71395856  0.89858384  0.19810377     1.00000
C1727       C  0.71472392  0.89794640  0.30635357     1.07500
O1728       O  0.66761714  0.83456768  0.25209058    -1.09700
O1729       O  0.65550856  0.77712280  0.29578076    -0.72100
O1730       O  0.70737629  0.81270308  0.29285550    -0.75600
O1731       O  0.68705768  0.89436924  0.20847043    -0.76300
C1732       C  0.68410122  0.78735850  0.30612702     0.98900
O1733       O  0.70776993  0.81519072  0.20825925    -0.74300
O1734       O  0.60609532  0.79473782  0.29296508    -0.79500
C1735       C  0.60368173  0.81724431  0.19828400     1.01600
C1736       C  0.60414846  0.81803779  0.30632364     1.07500
O1737       O  0.61991199  0.84523544  0.21161818    -0.75100
C1738       C  0.68508482  0.78821977  0.19802039     1.05800
C1739       C  0.96976629  0.99716694  0.41629085     0.05100
C1740       C  0.97189659  0.96926336  0.41673344     0.05100
C1741       C  0.00190855  0.97140706  0.41698936     0.05100
C1742       C  0.52970344  0.00230501  0.41492506     0.05100
C1743       C  0.52900837  0.52797063  0.36146768     0.05100
C1744       C  0.99826284  0.52842863  0.41270965     0.05100
C1745       C  0.71962298  0.52483420  0.35887595     0.83000
N1746       N  0.72143755  0.00141757  0.37969872    -0.75300
C1747       C  0.69532158  0.97621141  0.39551068     0.85500
N1748       N  0.66869160  0.97800722  0.40165799    -0.75200
C1749       C  0.66793390  0.00469419  0.39199309     0.85600
N1750       N  0.69117427  0.52360451  0.35636819    -0.76900
C1751       C  0.80375156  0.52298693  0.39698498     0.83000
N1752       N  0.83046922  0.52133725  0.40299111    -0.75300
C1753       C  0.83193440  0.99472273  0.39449805     0.85500
N1754       N  0.80627313  0.97024937  0.37741800    -0.75200
C1755       C  0.77980037  0.97220028  0.37054228     0.85600
N1756       N  0.77919089  0.99903767  0.38066047    -0.76900
C1757       C  0.97207404  0.69296472  0.37021712     0.83000
N1758       N  0.99851678  0.72063132  0.38058072    -0.75300
C1759       C  0.52686640  0.72176198  0.38639047     0.85500
N1760       N  0.52797480  0.69452817  0.38303708    -0.75200
C1761       C  0.99597862  0.66416994  0.39259161     0.85600
N1762       N  0.97096471  0.66481945  0.37616928    -0.76900
C1763       C  0.72081724  0.69523911  0.39099454     0.83000
N1764       N  0.72120479  0.72207418  0.37844581    -0.75300
C1765       C  0.69412569  0.72037851  0.36456243     0.85500
N1766       N  0.66687032  0.69186170  0.36314116    -0.75200
C1767       C  0.66645730  0.66521720  0.37571483     0.85600
N1768       N  0.69334133  0.66689515  0.38958896    -0.76900
C1769       C  0.52934045  0.80862453  0.36958459     0.83000
N1770       N  0.53076630  0.83690171  0.37565218    -0.75300
C1771       C  0.00659151  0.83700318  0.39553592     0.85500
N1772       N  0.98016260  0.80943049  0.40527812    -0.75200
C1773       C  0.97820741  0.78111044  0.39787264     0.85600
N1774       N  0.00305715  0.78047663  0.38057048    -0.76900
C1775       C  0.78074276  0.80389819  0.39572489     0.83000
N1776       N  0.77995921  0.77830655  0.37846050    -0.75300
C1777       C  0.80760386  0.77926509  0.36860672     0.85500
N1778       N  0.83584255  0.80587769  0.37590650    -0.75200
C1779       C  0.83659625  0.83129911  0.39307700     0.85600
N1780       N  0.80913609  0.83026907  0.40297814    -0.76900
C1781       C  0.99636535  0.55720461  0.41077623    -0.15700
C1782       C  0.99529129  0.58134049  0.40783005     0.08400
C1783       C  0.99471662  0.60983716  0.40318000     0.10200
C1784       C  0.99488730  0.63447988  0.39854541    -0.16500
C1785       C  0.55951867  0.55687279  0.36431872    -0.15700
C1786       C  0.58451927  0.58122470  0.36725239     0.08400
C1787       C  0.61334555  0.61013543  0.37079773     0.10200
C1788       C  0.63770075  0.63515619  0.37344079    -0.16500
C1789       C  0.94324625  0.93841224  0.41472477    -0.15700
C1790       C  0.91928188  0.91306595  0.41141568     0.08400
C1791       C  0.89095404  0.88390185  0.40595353     0.10200
C1792       C  0.86639125  0.85953726  0.40035518    -0.16500
C1793       C  0.93896715  0.99496000  0.41428298    -0.15700
C1794       C  0.91359317  0.99349700  0.41125587     0.08400
C1795       C  0.88440433  0.99261129  0.40630929     0.10200
C1796       C  0.86004789  0.99289205  0.40120497    -0.16500
C1797       C  0.56055056  0.00448684  0.41178220    -0.15700
C1798       C  0.58583299  0.00571736  0.40812883     0.08400
C1799       C  0.61498260  0.00636003  0.40297327     0.10200
C1800       C  0.63943266  0.00610938  0.39810192    -0.16500
C1801       C  0.00413541  0.94276973  0.41532722    -0.15700
C1802       C  0.00592001  0.91900209  0.41244701     0.08400
C1803       C  0.00747044  0.89101145  0.40759341     0.10200
C1804       C  0.00783280  0.86667848  0.40246822    -0.16500
C1805       C  0.69054753  0.76786348  0.33197694    -0.10400
C1806       C  0.69403915  0.74797811  0.34897016    -0.12000
C1807       C  0.55578258  0.80845172  0.35070954    -0.10400
C1808       C  0.57849309  0.81168488  0.33249281    -0.12000
C1809       C  0.75324857  0.94604739  0.35124363    -0.10400
C1810       C  0.73392910  0.92344266  0.33272370    -0.12000
C1811       C  0.92284455  0.68959580  0.33299951    -0.10400
C1812       C  0.94549329  0.69292452  0.35143949    -0.12000
C1813       C  0.76780492  0.57675231  0.32916928    -0.10400
C1814       C  0.74761508  0.55286375  0.34491608    -0.12000
C1815       C  0.80761767  0.75282448  0.34944680    -0.10400
C1816       C  0.81111377  0.73346801  0.33127625    -0.12000
C1817       C  0.57784021  0.81085147  0.17237937    -0.10400
C1818       C  0.55504321  0.80780917  0.15449690    -0.12000
C1819       C  0.80734608  0.75253123  0.15377126    -0.10400
C1820       C  0.81043279  0.73270979  0.17146684    -0.12000
C1821       C  0.94773466  0.69575859  0.15346316    -0.10400
C1822       C  0.92528628  0.69293574  0.17194258    -0.12000
C1823       C  0.69178249  0.76882643  0.17242765    -0.10400
C1824       C  0.69542342  0.74884515  0.15602477    -0.12000
C1825       C  0.74933074  0.55354939  0.15595031    -0.10400
C1826       C  0.76975018  0.57731036  0.17169739    -0.12000
C1827       C  0.73320271  0.92439387  0.17199304    -0.10400
C1828       C  0.75290030  0.94718333  0.15397029    -0.12000
C1829       C  0.56107167  0.55762337  0.14856598    -0.15700
C1830       C  0.58626190  0.58179291  0.14569233     0.08400
C1831       C  0.61533022  0.61042227  0.14162204     0.10200
C1832       C  0.63973498  0.63528262  0.13796917    -0.16500
C1833       C  0.50506649  0.63992899  0.14070017    -0.15700
C1834       C  0.50545019  0.61543437  0.14398824     0.08400
C1835       C  0.50505237  0.58632280  0.14739400     0.10200
C1836       C  0.50409629  0.56110866  0.14965703    -0.16500
C1837       C  0.55764932  0.49719746  0.14961487    -0.15700
C1838       C  0.58191364  0.49631302  0.14731818     0.08400
C1839       C  0.61063533  0.49601283  0.14378746     0.10200
C1840       C  0.63546947  0.49640442  0.14032079    -0.16500
C1841       C  0.50615551  0.94463346  0.09057563    -0.15700
C1842       C  0.50781960  0.92080898  0.09343223     0.08400
C1843       C  0.50872070  0.89251238  0.09848563     0.10200
C1844       C  0.50830216  0.86783312  0.10399160    -0.16500
C1845       C  0.86725049  0.86097607  0.10875760    -0.15700
C1846       C  0.89191146  0.88538822  0.10408600     0.08400
C1847       C  0.92029020  0.91454157  0.09929422     0.10200
C1848       C  0.94426755  0.93986891  0.09633103    -0.16500
C1849       C  0.86017590  0.49342417  0.10472025    -0.15700
C1850       C  0.88469382  0.49329766  0.10045154     0.08400
C1851       C  0.91395691  0.49415481  0.09655849     0.10200
C1852       C  0.93937812  0.49562465  0.09421102    -0.16500
C1853       C  0.80713798  0.57521367  0.42525784    -0.10400
C1854       C  0.80328662  0.55108526  0.40994747    -0.12000
C1855       C  0.80384009  0.55137534  0.09526456    -0.10400
C1856       C  0.80718892  0.57543234  0.08035891    -0.12000
C1857       C  0.74890443  0.69620822  0.40663402    -0.10400
C1858       C  0.76926283  0.69303374  0.42291831    -0.12000
C1859       C  0.92578042  0.73171010  0.42467147    -0.10400
C1860       C  0.94997691  0.75231111  0.40986788    -0.12000
C1861       C  0.76913116  0.69326311  0.08018377    -0.10400
C1862       C  0.74920810  0.69650186  0.09736797    -0.12000
C1863       C  0.94812897  0.75182546  0.09514424    -0.10400
C1864       C  0.92432832  0.73132374  0.07945851    -0.12000
C1865       C  0.57670573  0.76892314  0.42107675    -0.10400
C1866       C  0.55362641  0.74917855  0.40359379    -0.12000
C1867       C  0.57677574  0.76908007  0.08147098    -0.10400
C1868       C  0.55375252  0.74931942  0.09909209    -0.12000
C1869       C  0.69252977  0.92400112  0.42274214    -0.10400
C1870       C  0.69572819  0.94796259  0.40772094    -0.12000
C1871       C  0.75209244  0.80331721  0.40837691    -0.10400
C1872       C  0.73163654  0.80678775  0.42377654    -0.12000
C1873       C  0.69635548  0.94830040  0.09517366    -0.10400
C1874       C  0.69290115  0.92443937  0.07959446    -0.12000
C1875       C  0.75322548  0.80510607  0.09675636    -0.10400
C1876       C  0.73279128  0.80857270  0.08124203    -0.12000
Fe1877     Fe  0.71204990  0.86604844  0.50143675     1.65800
Fe1878     Fe  0.63408778  0.84562623  0.00116244     1.73200
Fe1879     Fe  0.65516074  0.78797928  0.00319784     1.54400
O1880       O  0.69061830  0.79371456  0.96512415    -0.78800
O1881       O  0.60396989  0.81113278  0.54017711    -0.77200
O1882       O  0.72316020  0.84577111  0.95600527    -0.81400
O1883       O  0.72261015  0.84500304  0.54676273    -0.76200
O1884       O  0.62413390  0.77670218  0.95721681    -0.78000
O1885       O  0.65449527  0.87771025  0.54624067    -0.80700
C1886       C  0.71259553  0.81623823  0.55621782     1.00000
C1887       C  0.71444147  0.81685278  0.94905188     1.07500
O1888       O  0.66733672  0.83344443  0.00207550    -1.09700
O1889       O  0.65469242  0.87677482  0.95529317    -0.72100
O1890       O  0.70678982  0.89598707  0.96278796    -0.75600
O1891       O  0.68777752  0.79298742  0.54192166    -0.76300
C1892       C  0.68345749  0.89675077  0.94739102     0.98900
O1893       O  0.70647860  0.89538470  0.54034010    -0.74300
O1894       O  0.60517427  0.81002318  0.96245689    -0.79500
C1895       C  0.60195439  0.78608609  0.55436245     1.01600
C1896       C  0.60456484  0.78571064  0.94795711     1.07500
O1897       O  0.62107572  0.77635587  0.54591568    -0.75100
C1898       C  0.68333689  0.89699600  0.55478418     1.05800
Fe1899     Fe  0.86674167  0.65418745  0.50299214     1.65800
Fe1900     Fe  0.78820260  0.63445769  0.50275989     1.73200
Fe1901     Fe  0.84698674  0.71300632  0.50181370     1.54400
O1902       O  0.87905135  0.72396415  0.54680050    -0.78800
O1903       O  0.77671192  0.65328063  0.95631990    -0.77200
O1904       O  0.89566402  0.68867282  0.54268250    -0.81400
O1905       O  0.89571655  0.68882768  0.96303620    -0.76200
O1906       O  0.81243864  0.70821186  0.54085603    -0.78000
O1907       O  0.79305361  0.60318643  0.96445253    -0.80700
C1908       C  0.89683841  0.71307135  0.94754301     1.00000
C1909       C  0.89766427  0.71382403  0.55645533     1.07500
O1910       O  0.83397692  0.66721437  0.50244006    -1.09700
O1911       O  0.79340528  0.60583648  0.54324895    -0.72100
O1912       O  0.84520992  0.62217821  0.54773587    -0.75600
O1913       O  0.87690546  0.72202674  0.95495207    -0.76300
C1914       C  0.81644773  0.60375191  0.55725051     0.98900
O1915       O  0.84505405  0.62222968  0.95591303    -0.74300
O1916       O  0.77734818  0.65638493  0.54661255    -0.79500
C1917       C  0.78572601  0.68196386  0.94755084     1.01600
C1918       C  0.78721642  0.68531335  0.55489666     1.07500
O1919       O  0.81015746  0.70552087  0.96215401    -0.75100
C1920       C  0.81611528  0.60215802  0.94875231     1.05800
C1921       C  0.97124091  0.49875420  0.60263655     0.05100
C1922       C  0.49767846  0.52771036  0.57269111     0.05100
C1923       C  0.52831543  0.53122829  0.57219784     0.05100
C1924       C  0.53179494  0.50406706  0.57182041     0.05100
C1925       C  0.50233879  0.97251633  0.58987160     0.05100
C1926       C  0.97217986  0.97062998  0.60411542     0.05100
C1927       C  0.77827005  0.97128251  0.63522582     0.83000
N1928       N  0.80550310  0.97038456  0.63031768    -0.75300
C1929       C  0.83307757  0.49687301  0.61654033     0.85500
N1930       N  0.83254602  0.52355732  0.60639714    -0.75200
C1931       C  0.80571150  0.52519485  0.61102243     0.85600
N1932       N  0.77911385  0.49981277  0.62579572    -0.76900
C1933       C  0.69456268  0.97628173  0.60741727     0.83000
N1934       N  0.72198429  0.50427528  0.61909941    -0.75300
C1935       C  0.72138727  0.53145720  0.62717698     0.85500
N1936       N  0.69554314  0.53376213  0.61734077    -0.75200
C1937       C  0.67053367  0.50928646  0.59924101     0.85600
N1938       N  0.66827799  0.97866206  0.60134122    -0.76900
C1939       C  0.71746210  0.69631510  0.60235838     0.83000
N1940       N  0.68914107  0.67086743  0.59231213    -0.75300
C1941       C  0.66157977  0.67022344  0.60057440     0.85500
N1942       N  0.66219198  0.69513303  0.61903589    -0.75200
C1943       C  0.69040097  0.72085126  0.62907826     0.85600
N1944       N  0.71810824  0.72138477  0.62084072    -0.76900
C1945       C  0.97132514  0.69297614  0.63711941     0.83000
N1946       N  0.49677807  0.71740213  0.62016957    -0.75300
C1947       C  0.52143196  0.71665984  0.60244615     0.85500
N1948       N  0.51869291  0.68831633  0.59300381    -0.75200
C1949       C  0.49168671  0.66075967  0.60110655     0.85600
N1950       N  0.96997745  0.66456450  0.63293094    -0.76900
C1951       C  0.77974997  0.80580005  0.61249336     0.83000
N1952       N  0.77818022  0.77902445  0.62731727    -0.75300
C1953       C  0.80531010  0.77946485  0.63851198     0.85500
N1954       N  0.83375640  0.80660811  0.63496879    -0.75200
C1955       C  0.83525859  0.83316370  0.62018546     0.85600
N1956       N  0.80834989  0.83273711  0.60892076    -0.76900
C1957       C  0.52752971  0.80700139  0.63595217     0.83000
N1958       N  0.50035849  0.77973212  0.62633929    -0.75300
C1959       C  0.97575966  0.78085425  0.61262392     0.85500
N1960       N  0.97751449  0.80949500  0.60941090    -0.75200
C1961       C  0.50525934  0.83719434  0.61295092     0.85600
N1962       N  0.52983939  0.83565095  0.62932331    -0.76900
Fe1963     Fe  0.84343722  0.63218402  0.75023246     1.65800
Fe1964     Fe  0.78562470  0.65339863  0.75239524     1.73200
Fe1965     Fe  0.86466294  0.71117870  0.75216326     1.54400
O1966       O  0.89060841  0.70516170  0.79567477    -0.78800
O1967       O  0.79120767  0.68771238  0.71249614    -0.77200
O1968       O  0.87845675  0.65432841  0.79194731    -0.81400
O1969       O  0.87715872  0.65461660  0.70741335    -0.76200
O1970       O  0.84163753  0.72331676  0.79321193    -0.78000
O1971       O  0.77390785  0.62104859  0.70778758    -0.80700
C1972       C  0.89540450  0.68333920  0.69756325     1.00000
C1973       C  0.89460271  0.68222034  0.80570075     1.07500
O1974       O  0.83123989  0.66557320  0.75165931    -1.09700
O1975       O  0.77313794  0.61715341  0.79221102    -0.72100
O1976       O  0.81150667  0.60460251  0.79286874    -0.75600
O1977       O  0.89301437  0.70629992  0.71111412    -0.76300
C1978       C  0.78477466  0.60034463  0.80395768     0.98900
O1979       O  0.81019053  0.60558567  0.70813195    -0.74300
O1980       O  0.79111150  0.68422851  0.79706353    -0.79500
C1981       C  0.81442195  0.71291338  0.69891433     1.01600
C1982       C  0.81382513  0.71126146  0.80710343     1.07500
O1983       O  0.84310907  0.72306644  0.70874128    -0.75100
C1984       C  0.78468525  0.60363319  0.69560376     1.05800
Fe1985     Fe  0.71175914  0.84395382  0.75052016     1.65800
Fe1986     Fe  0.63252745  0.78655455  0.75237051     1.73200
Fe1987     Fe  0.65442745  0.86584110  0.75162842     1.54400
O1988       O  0.68758549  0.89292427  0.79337027    -0.78800
O1989       O  0.60483190  0.79205935  0.71076889    -0.77200
O1990       O  0.72463476  0.87849248  0.79284805    -0.81400
O1991       O  0.72363962  0.87834304  0.70829484    -0.76200
O1992       O  0.62057660  0.84405582  0.79445175    -0.78000
O1993       O  0.65376774  0.77394660  0.70938565    -0.80700
C1994       C  0.71251172  0.89561683  0.69662456     1.00000
C1995       C  0.71373598  0.89586621  0.80488397     1.07500
O1996       O  0.66624448  0.83211417  0.75152375    -1.09700
O1997       O  0.65528012  0.77431399  0.79392299    -0.72100
O1998       O  0.70674362  0.81129767  0.79262709    -0.75600
O1999       O  0.68654972  0.89265783  0.70878853    -0.76300
C2000       C  0.68382882  0.78524452  0.80487770     0.98900
O2001       O  0.70521237  0.81108902  0.70792606    -0.74300
O2002       O  0.60644528  0.79265103  0.79551063    -0.79500
C2003       C  0.60201963  0.81520770  0.69861214     1.01600
C2004       C  0.60362291  0.81590695  0.80708306     1.07500
O2005       O  0.61963331  0.84363142  0.70992286    -0.75100
C2006       C  0.68181675  0.78495600  0.69655631     1.05800
C2007       C  0.96985876  0.99773714  0.90898458     0.05100
C2008       C  0.97231210  0.97003000  0.90960384     0.05100
C2009       C  0.00249796  0.97256501  0.90985979     0.05100
C2010       C  0.52976364  0.00279111  0.90883377     0.05100
C2011       C  0.53059252  0.52600319  0.82982941     0.05100
C2012       C  0.99767691  0.52740827  0.90906856     0.05100
C2013       C  0.71650460  0.52062495  0.85536317     0.83000
N2014       N  0.72038872  0.99999758  0.87672038    -0.75300
C2015       C  0.69390264  0.97523091  0.89266028     0.85500
N2016       N  0.66749171  0.97757898  0.89777721    -0.75200
C2017       C  0.66727587  0.00430683  0.88697659     0.85600
N2018       N  0.68781705  0.51755566  0.84698407    -0.76900
C2019       C  0.80437940  0.52284324  0.89522858     0.83000
N2020       N  0.83070461  0.52038678  0.90070550    -0.75300
C2021       C  0.83174092  0.99541954  0.88958090     0.85500
N2022       N  0.80605658  0.97033051  0.87340801    -0.75200
C2023       C  0.77900816  0.97137137  0.86730730     0.85600
N2024       N  0.77781962  0.99792059  0.87730768    -0.76900
C2025       C  0.97009978  0.69167187  0.86737443     0.83000
N2026       N  0.99704477  0.71935901  0.87645041    -0.75300
C2027       C  0.53090680  0.72027598  0.88310099     0.85500
N2028       N  0.53292237  0.69389142  0.87577239    -0.75200
C2029       C  0.99419509  0.66272521  0.88872012     0.85600
N2030       N  0.96884279  0.66344633  0.87344061    -0.76900
C2031       C  0.71972089  0.69037668  0.88399579     0.83000
N2032       N  0.72004560  0.71784227  0.87465222    -0.75300
C2033       C  0.69433629  0.71659885  0.85706139     0.85500
N2034       N  0.66854401  0.68796971  0.84884072    -0.75200
C2035       C  0.66818298  0.66067487  0.85819089     0.85600
N2036       N  0.69369885  0.66188290  0.87578911    -0.76900
C2037       C  0.52966359  0.80768551  0.87057200     0.83000
N2038       N  0.53108484  0.83608519  0.87565402    -0.75300
C2039       C  0.00555261  0.83727081  0.89236616     0.85500
N2040       N  0.97883131  0.81003873  0.90222736    -0.75200
C2041       C  0.97649671  0.78144539  0.89566514     0.85600
N2042       N  0.00130761  0.78018740  0.87909772    -0.76900
C2043       C  0.78170726  0.80472802  0.89608723     0.83000
N2044       N  0.77964365  0.77808133  0.88026352    -0.75300
C2045       C  0.80663079  0.77782483  0.87010718     0.85500
N2046       N  0.83545370  0.80422728  0.87570226    -0.75200
C2047       C  0.83742935  0.83066129  0.89155816     0.85600
N2048       N  0.81062546  0.83085257  0.90170002    -0.76900
C2049       C  0.99537404  0.55601122  0.90711197    -0.15700
C2050       C  0.99393422  0.57998376  0.90415057     0.08400
C2051       C  0.99299032  0.60834310  0.89946088     0.10200
C2052       C  0.99299950  0.63293470  0.89476385    -0.16500
C2053       C  0.56208856  0.55375343  0.83277444    -0.15700
C2054       C  0.58762323  0.57739507  0.83690865     0.08400
C2055       C  0.61660573  0.60577465  0.84338053     0.10200
C2056       C  0.64055790  0.63056140  0.84985459    -0.16500
C2057       C  0.94387391  0.93894847  0.90806249    -0.15700
C2058       C  0.92028003  0.91319759  0.90544985     0.08400
C2059       C  0.89230328  0.88348217  0.90118812     0.10200
C2060       C  0.86773709  0.85881210  0.89692037    -0.16500
C2061       C  0.93893554  0.99531124  0.90714894    -0.15700
C2062       C  0.91368846  0.99419751  0.90445588     0.08400
C2063       C  0.88470067  0.99388260  0.90012309     0.10200
C2064       C  0.86033697  0.99429880  0.89563367    -0.16500
C2065       C  0.56069667  0.00534391  0.90578757    -0.15700
C2066       C  0.58596984  0.00665657  0.90213427     0.08400
C2067       C  0.61493672  0.00707078  0.89701739     0.10200
C2068       C  0.63914249  0.00638830  0.89238624    -0.16500
C2069       C  0.00502194  0.94412776  0.90890417    -0.15700
C2070       C  0.00662646  0.92025162  0.90679295     0.08400
C2071       C  0.00756796  0.89191331  0.90288656     0.10200
C2072       C  0.00731332  0.86722612  0.89851493    -0.16500
C2073       C  0.69071937  0.76558779  0.82983775    -0.10400
C2074       C  0.69431742  0.74510628  0.84502662    -0.12000
C2075       C  0.55606158  0.80713945  0.85223186    -0.10400
C2076       C  0.57851386  0.80995057  0.83387119    -0.12000
C2077       C  0.75243554  0.94456070  0.84892516    -0.10400
C2078       C  0.73312875  0.92156969  0.83093116    -0.12000
C2079       C  0.92019189  0.68841085  0.83193751    -0.10400
C2080       C  0.94313988  0.69168578  0.84968605    -0.12000
C2081       C  0.76527698  0.57350784  0.82854220    -0.10400
C2082       C  0.74489608  0.54927325  0.84350354    -0.12000
C2083       C  0.80525127  0.75045467  0.85176968    -0.10400
C2084       C  0.80766638  0.73046783  0.83360100    -0.12000
C2085       C  0.57631070  0.80889164  0.67256643    -0.10400
C2086       C  0.55372083  0.80609863  0.65447555    -0.12000
C2087       C  0.80453438  0.75198900  0.65562531    -0.10400
C2088       C  0.80782632  0.73223418  0.67311650    -0.12000
C2089       C  0.94457054  0.69356853  0.65445817    -0.10400
C2090       C  0.92148219  0.69021586  0.67187799    -0.12000
C2091       C  0.68746722  0.76572226  0.66944420    -0.10400
C2092       C  0.69033211  0.74659215  0.64995610    -0.12000
C2093       C  0.74701976  0.55729454  0.64805063    -0.10400
C2094       C  0.76587389  0.57916797  0.66789581    -0.12000
C2095       C  0.73162863  0.92130730  0.67041781    -0.10400
C2096       C  0.75125810  0.94431370  0.65272142    -0.12000
C2097       C  0.55623848  0.56271195  0.57450858    -0.15700
C2098       C  0.57964129  0.58852703  0.57820095     0.08400
C2099       C  0.60748406  0.61808799  0.58445312     0.10200
C2100       C  0.63180204  0.64248230  0.59120494    -0.16500
C2101       C  0.48973189  0.63098405  0.59223664    -0.15700
C2102       C  0.48989022  0.60669478  0.58566426     0.08400
C2103       C  0.49168705  0.57893981  0.57936107     0.10200
C2104       C  0.49413387  0.55559153  0.57543902    -0.16500
C2105       C  0.56323066  0.50758908  0.57391672    -0.15700
C2106       C  0.58895373  0.50981068  0.57747227     0.08400
C2107       C  0.61837447  0.51124900  0.58353569     0.10200
C2108       C  0.64271704  0.51119353  0.59008866    -0.16500
C2109       C  0.50485149  0.94401808  0.59196801    -0.15700
C2110       C  0.50657193  0.92021825  0.59533411     0.08400
C2111       C  0.50769394  0.89201194  0.60077906     0.10200
C2112       C  0.50744117  0.86736571  0.60620298    -0.16500
C2113       C  0.86530483  0.86173935  0.61637598    -0.15700
C2114       C  0.89023702  0.88609002  0.61304108     0.08400
C2115       C  0.91902422  0.91499375  0.60924318     0.10200
C2116       C  0.94331250  0.94006408  0.60645827    -0.16500
C2117       C  0.86171559  0.49564451  0.61211194    -0.15700
C2118       C  0.88629180  0.49550591  0.60882121     0.08400
C2119       C  0.91548944  0.49617498  0.60571626     0.10200
C2120       C  0.94071684  0.49721234  0.60385476    -0.16500
C2121       C  0.80907969  0.57545099  0.92406340    -0.10400
C2122       C  0.80485150  0.55129880  0.90850459    -0.12000
C2123       C  0.80574444  0.55348613  0.59813058    -0.10400
C2124       C  0.80951933  0.57745135  0.58254097    -0.12000
C2125       C  0.74626316  0.69085249  0.90346451    -0.10400
C2126       C  0.76597636  0.68797739  0.92171113    -0.12000
C2127       C  0.92360684  0.73291546  0.92300971    -0.10400
C2128       C  0.94792523  0.75309700  0.90795857    -0.12000
C2129       C  0.76712078  0.69252092  0.57844754    -0.10400
C2130       C  0.74629967  0.69631817  0.59210347    -0.12000
C2131       C  0.94769241  0.75306327  0.59823261    -0.10400
C2132       C  0.92390149  0.73323600  0.58189868    -0.12000
C2133       C  0.57926000  0.76615629  0.92152434    -0.10400
C2134       C  0.55693636  0.74668005  0.90276661    -0.12000
C2135       C  0.57491734  0.76607928  0.57831717    -0.10400
C2136       C  0.55031590  0.74542348  0.59220947    -0.12000
C2137       C  0.68992505  0.92306274  0.92219316    -0.10400
C2138       C  0.69362112  0.94692143  0.90626307    -0.12000
C2139       C  0.75387775  0.80560204  0.90880026    -0.10400
C2140       C  0.73401732  0.80993001  0.92421961    -0.12000
C2141       C  0.69424010  0.94777754  0.59476469    -0.10400
C2142       C  0.69022570  0.92361583  0.57949241    -0.12000
C2143       C  0.75185071  0.80589456  0.59835687    -0.10400
C2144       C  0.73188850  0.80957577  0.58198314    -0.12000
loop_ 
_geom_bond_atom_site_label_1 
_geom_bond_atom_site_label_2 
_geom_bond_distance 
_geom_bond_site_symmetry_2 
_ccdc_geom_bond_type 
Fe1          O17   2.076       .  S
Fe1           O7   2.072       .  S
Fe1         O282   2.074   1_554  S
Fe1         O274   2.071   1_554  S
Fe1         O280   1.987       .  S
Fe2          O13   2.073       .  S
Fe2          O18   2.076       .  S
Fe2         O273   2.076       .  S
Fe2         O277   2.070       .  S
Fe2          O12   1.987       .  S
Fe3           O8   2.071       .  S
Fe3           O4   2.077       .  S
Fe3         O289   2.076       .  S
Fe3         O283   2.076       .  S
Fe3          O12   1.987       .  S
O4           C11   1.270       .  A
O5         Fe270   2.077       .  S
O5           C19   1.270       .  A
O6         Fe269   2.075       .  S
O6           C11   1.271       .  A
O7           C10   1.269       .  A
O8           C20   1.269       .  A
O9         Fe270   2.076       .  S
O9           C22   1.270       .  A
C10          O15   1.270       .  A
C10         C268   1.446       .  S
C11         C264   1.444       .  S
O12        Fe269   1.987       .  S
O13          C16   1.269       .  A
O14        Fe269   2.078       .  S
O14          C16   1.269       .  A
O15        Fe271   2.080       .  S
C16         C261   1.446       .  S
O17          C22   1.269       .  A
O18          C20   1.269       .  A
C19          O21   1.271       .  A
C19         C259   1.447       .  S
C20         C257   1.443       .  S
O21        Fe271   2.079       .  S
C22         C266   1.446       .  S
Fe23         O36   2.077       .  S
Fe23         O28   2.077       .  S
Fe23        O307   2.074   1_554  S
Fe23        O297   2.080   1_554  S
Fe23         O34   1.985       .  S
Fe24         O35   2.077       .  S
Fe24         O40   2.073       .  S
Fe24        O295   2.073   1_554  S
Fe24        O299   2.075   1_554  S
Fe24         O34   1.985       .  S
Fe25         O30   2.076       .  S
Fe25         O26   2.072       .  S
Fe25        O311   2.075   1_554  S
Fe25        O305   2.071   1_554  S
Fe25         O34   1.987       .  S
O26          C33   1.269       .  A
O27        Fe292   2.074       .  S
O27          C41   1.269       .  A
O28          C33   1.270       .  A
O29        Fe291   2.078       .  S
O29          C32   1.270       .  A
O30          C42   1.269       .  A
O31        Fe292   2.077       .  S
O31          C44   1.270       .  A
C32          O37   1.270       .  A
C32         C251   1.446       .  S
C33         C256   1.444       .  S
O35          C38   1.270       .  A
O36          C38   1.270       .  A
O37        Fe293   2.075       .  S
C38         C248   1.446       .  S
O39        Fe291   2.072       .  S
O39          C44   1.269       .  A
O40          C42   1.269       .  A
C41          O43   1.269       .  A
C41         C250   1.445       .  S
C42         C253   1.444       .  S
O43        Fe293   2.077       .  S
C44         C245   1.443       .  S
C45         C244   1.449       .  S
C45        C1118   1.409   1_565  A
C45         C586   1.409       .  A
C46         C228   1.447       .  S
C46          C47   1.408   1_655  A
C46        C1117   1.407   1_545  A
C47         C221   1.446       .  S
C47          C48   1.408       .  A
C48         C229   1.448       .  S
C48         C585   1.408   1_545  A
C49         C233   1.447       .  S
C49         C584   1.408       .  A
C49        C1122   1.408   1_455  A
C50         C240   1.449       .  S
C50         C581   1.408       .  A
C50        C1121   1.408       .  A
C51         C220   1.444       .  S
C51          N52   1.356       .  A
C51         N592   1.363       .  A
N52         C589   1.354       .  A
C53         C241   1.432       .  S
C53          N54   1.355   1_565  A
C53         N588   1.355       .  A
N54          C55   1.355       .  A
C55         C247   1.447       .  S
C55          N56   1.364   1_545  A
N56         C587   1.365       .  A
C57         C265   1.447       .  S
C57          N62   1.355       .  A
C57         N594   1.364       .  A
N58          C59   1.364       .  A
N58         C593   1.363   1_545  A
C59         C217   1.446       .  S
C59          N60   1.356       .  A
N60          C61   1.355       .  A
C61         C232   1.432       .  S
C61         N598   1.355   1_545  A
N62         C597   1.355       .  A
C63         C254   1.445       .  S
C63          N64   1.355       .  A
C63          N68   1.363       .  A
N64          C65   1.354       .  A
C65         C224   1.430       .  S
C65          N66   1.355       .  A
N66          C67   1.356       .  A
C67         C216   1.445       .  S
C67          N68   1.363       .  A
C69         C213   1.446       .  S
C69          N74   1.357       .  A
C69        N1142   1.364       .  A
N70          C71   1.365   1_655  A
N70        C1141   1.365       .  A
C71         C260   1.447       .  S
C71          N72   1.355       .  A
N72          C73   1.354   1_455  A
C73         C225   1.431       .  S
C73        N1146   1.355       .  A
N74        C1145   1.356       .  A
C75         C267   1.446       .  S
C75          N76   1.364       .  A
C75          N80   1.357       .  A
N76          C77   1.363       .  A
C77         C211   1.447       .  S
C77          N78   1.356       .  A
N78          C79   1.355       .  A
C79         C237   1.433       .  S
C79          N80   1.355       .  A
C81         C210   1.446       .  S
C81          N82   1.364       .  A
C81          N86   1.356       .  A
N82        C1155   1.364   1_455  A
C83         C255   1.444       .  S
C83          N84   1.356       .  A
C83        N1154   1.364       .  A
N84        C1157   1.355       .  A
C85         C236   1.430       .  S
C85          N86   1.356       .  A
C85        N1156   1.354   1_455  A
Fe87        O103   2.078       .  S
Fe87         O93   2.077       .  S
Fe87        O100   2.081       .  S
Fe87         O92   2.075       .  S
Fe87         O98   1.984       .  S
Fe88         O91   2.076       .  S
Fe88         O95   2.074       .  S
Fe88         O99   2.073       .  S
Fe88        O104   2.078       .  S
Fe88         O98   1.984       .  S
Fe89        O107   2.077       .  S
Fe89         O94   2.075       .  S
Fe89        O101   2.078       .  S
Fe89         O90   2.080       .  S
Fe89         O98   1.983       .  S
O90          C97   1.269       .  A
O91         C105   1.269       .  A
O92          C97   1.270       .  A
O93          C96   1.271       .  A
O94         C106   1.271       .  A
O95         C108   1.269       .  A
C96         O101   1.271       .  A
C96         C214   1.446       .  S
C97         C203   1.447       .  S
O99         C102   1.270       .  A
O100        C102   1.270       .  A
C102        C205   1.445       .  S
O103        C108   1.270       .  A
O104        C106   1.270       .  A
C105        O107   1.270       .  A
C105        C212   1.446       .  S
C106        C208   1.445       .  S
C108        C218   1.445       .  S
Fe109       O125   2.077       .  S
Fe109       O115   2.076       .  S
Fe109       O122   2.078       .  S
Fe109       O114   2.075       .  S
Fe109       O120   1.985       .  S
Fe110       O113   2.077       .  S
Fe110       O117   2.074       .  S
Fe110       O121   2.072       .  S
Fe110       O126   2.079       .  S
Fe110       O120   1.986       .  S
Fe111       O129   2.074       .  S
Fe111       O116   2.073       .  S
Fe111       O123   2.075       .  S
Fe111       O112   2.078       .  S
Fe111       O120   1.985       .  S
O112        C119   1.269       .  A
O113        C127   1.269       .  A
O114        C119   1.270       .  A
O115        C118   1.270       .  A
O116        C128   1.270       .  A
O117        C130   1.270       .  A
C118        O123   1.270       .  A
C118        C219   1.444       .  S
C119        C202   1.446       .  S
O121        C124   1.270       .  A
O122        C124   1.270       .  A
C124        C197   1.444       .  S
O125        C130   1.269       .  A
O126        C128   1.270       .  A
C127        O129   1.269       .  A
C127        C209   1.445       .  S
C128        C200   1.445       .  S
C130        C215   1.445       .  S
C131        C185   1.447       .  S
C131        C132   1.407       .  A
C131        C672   1.407       .  A
C132        C181   1.445       .  S
C132        C133   1.407       .  A
C133        C193   1.447       .  S
C133       C1206   1.407       .  A
C134        C189   1.447       .  S
C134       C1205   1.409       .  A
C134        C671   1.408       .  A
C135        C177   1.446       .  S
C135        C670   1.409       .  A
C135       C1208   1.409   1_455  A
C136        C173   1.448       .  S
C136        C667   1.409   1_545  A
C136       C1207   1.409       .  A
C137        C206   1.445       .  S
C137        N142   1.357       .  A
C137        N674   1.364       .  A
N138        C139   1.364       .  A
N138        C673   1.365       .  A
C139        C262   1.447       .  S
C139        N140   1.355       .  A
N140        C141   1.354       .  A
C141        C192   1.431       .  S
C141        N678   1.355       .  A
N142        C677   1.356       .  A
C143        C246   1.444       .  S
C143        N144   1.356       .  A
C143        N684   1.361   1_545  A
N144        C681   1.355   1_545  A
C145        C188   1.430       .  S
C145        N146   1.354       .  A
C145        N680   1.355       .  A
N146        C147   1.355       .  A
C147        C201   1.446       .  S
C147        N148   1.364       .  A
N148        C679   1.364       .  A
C149        C204   1.448       .  S
C149        N150   1.364       .  A
C149        N154   1.356       .  A
N150       C1223   1.364       .  A
C151        C258   1.444       .  S
C151        N152   1.356       .  A
C151       N1222   1.363   1_455  A
N152       C1225   1.355   1_455  A
C153        C176   1.431       .  S
C153        N154   1.356       .  A
C153       N1224   1.354       .  A
C155        C249   1.445       .  S
C155        N156   1.363       .  A
C155        N160   1.355       .  A
N156        C157   1.363       .  A
C157        C198   1.445       .  S
C157        N158   1.356       .  A
N158        C159   1.355       .  A
C159        C180   1.430       .  S
C159        N160   1.354       .  A
C161        C199   1.445       .  S
C161        N162   1.356       .  A
C161       N1238   1.364   1_455  A
N162       C1235   1.355       .  A
C163        C196   1.430       .  S
C163        N164   1.355       .  A
C163       N1234   1.355       .  A
N164        C165   1.355       .  A
C165        C252   1.446       .  S
C165        N166   1.364       .  A
N166       C1233   1.364       .  A
C167        C263   1.445       .  S
C167        N168   1.364       .  A
C167        N172   1.355       .  A
N168        C169   1.364       .  A
C169        C207   1.445       .  S
C169        N170   1.355       .  A
N170        C171   1.354       .  A
C171        C184   1.429       .  S
C171        N172   1.354       .  A
C173        C174   1.203       .  T
C174        C175   1.407       .  S
C175        C176   1.203       .  T
C177        C178   1.202       .  T
C178        C179   1.406       .  S
C179        C180   1.202       .  T
C181        C182   1.202       .  T
C182        C183   1.405       .  S
C183        C184   1.201       .  T
C185        C186   1.203       .  T
C186        C187   1.406       .  S
C187        C188   1.202       .  T
C189        C190   1.203       .  T
C190        C191   1.407       .  S
C191        C192   1.203       .  T
C193        C194   1.203       .  T
C194        C195   1.406       .  S
C195        C196   1.203       .  T
C197        C198   1.211       .  T
C199        C200   1.211       .  T
C201        C202   1.213       .  T
C203        C204   1.213       .  T
C205        C206   1.212       .  T
C207        C208   1.212       .  T
C209        C210   1.212       .  T
C211        C212   1.212       .  T
C213        C214   1.212       .  T
C215        C216   1.212       .  T
C217        C218   1.212       .  T
C219        C220   1.211       .  T
C221        C222   1.202       .  T
C222        C223   1.406       .  S
C223        C224   1.202       .  T
C225        C226   1.203       .  T
C226        C227   1.407       .  S
C227        C228   1.203       .  T
C229        C230   1.204       .  T
C230        C231   1.408       .  S
C231        C232   1.204       .  T
C233        C234   1.203       .  T
C234        C235   1.407       .  S
C235        C236   1.203       .  T
C237        C238   1.203       .  T
C238        C239   1.409       .  S
C239        C240   1.204       .  T
C241        C242   1.204       .  T
C242        C243   1.409       .  S
C243        C244   1.204       .  T
C245        C246   1.211       .  T
C247        C248   1.212       .  T
C249        C250   1.212       .  T
C251        C252   1.212       .  T
C253        C254   1.212       .  T
C255        C256   1.212       .  T
C257        C258   1.211       .  T
C259        C260   1.213       .  T
C261        C262   1.213       .  T
C263        C264   1.212       .  T
C265        C266   1.212       .  T
C267        C268   1.213       .  T
Fe269       O285   2.078       .  S
Fe269       O275   2.071       .  S
Fe270       O281   2.073   1_554  S
Fe270       O286   2.078   1_554  S
Fe270       O280   1.987       .  S
Fe271       O276   2.075   1_554  S
Fe271       O272   2.082   1_554  S
Fe271       O280   1.987       .  S
O272        C279   1.270       .  A
O273        C287   1.269       .  A
O274        C279   1.269       .  A
O275        C278   1.269       .  A
O276        C288   1.270       .  A
O277        C290   1.269       .  A
C278        O283   1.269       .  A
C278        C536   1.444       .  S
C279        C532   1.446       .  S
O281        C284   1.270       .  A
O282        C284   1.269       .  A
C284        C529   1.442       .  S
O285        C290   1.270       .  A
O286        C288   1.269       .  A
C287        O289   1.271       .  A
C287        C527   1.445       .  S
C288        C525   1.446       .  S
C290        C534   1.443       .  S
Fe291       O304   2.076       .  S
Fe291       O296   2.076       .  S
Fe291       O302   1.983       .  S
Fe292       O303   2.079       .  S
Fe292       O308   2.073       .  S
Fe292       O302   1.984       .  S
Fe293       O298   2.077       .  S
Fe293       O294   2.072       .  S
Fe293       O302   1.984       .  S
O294        C301   1.270       .  A
O295        C309   1.270       .  A
O296        C301   1.269       .  A
O297        C300   1.270       .  A
O298        C310   1.269       .  A
O299        C312   1.269       .  A
C300        O305   1.269       .  A
C300        C519   1.445       .  S
C301        C524   1.444       .  S
O303        C306   1.269       .  A
O304        C306   1.271       .  A
C306        C516   1.447       .  S
O307        C312   1.270       .  A
O308        C310   1.270       .  A
C309        O311   1.269       .  A
C309        C518   1.443       .  S
C310        C521   1.443       .  S
C312        C513   1.444       .  S
C313        C512   1.447       .  S
C313       C1386   1.409   1_565  A
C313        C854   1.409       .  A
C314        C496   1.443       .  S
C314       C1385   1.407   1_545  A
C314        C315   1.407   1_655  A
C315        C489   1.448       .  S
C315        C316   1.406       .  A
C316        C497   1.447       .  S
C316        C853   1.407   1_545  A
C317        C501   1.443       .  S
C317        C852   1.407       .  A
C317       C1390   1.407   1_455  A
C318        C508   1.451       .  S
C318        C849   1.410       .  A
C318       C1389   1.411       .  A
C319        C488   1.446       .  S
C319        N320   1.358       .  A
C319        N860   1.364       .  A
N320        C857   1.356       .  A
C321        C509   1.431       .  S
C321        N856   1.355       .  A
C321        N322   1.354   1_565  A
N322        C323   1.354       .  A
C323        C515   1.447       .  S
C323        N324   1.364   1_545  A
N324        C855   1.365       .  A
C325        C533   1.443       .  S
C325        N862   1.363       .  A
C325        N330   1.356       .  A
N326        C861   1.363   1_545  A
N326        C327   1.364       .  A
C327        C485   1.444       .  S
C327        N328   1.356       .  A
N328        C329   1.355       .  A
C329        C500   1.429       .  S
C329        N866   1.354   1_545  A
N330        C865   1.355       .  A
C331        C522   1.444       .  S
C331        N332   1.355       .  A
C331        N336   1.364       .  A
N332        C333   1.354       .  A
C333        C492   1.432       .  S
C333        N334   1.355       .  A
N334        C335   1.357       .  A
C335        C484   1.444       .  S
C335        N336   1.364       .  A
C337        C481   1.443       .  S
C337       N1410   1.363       .  A
C337        N342   1.356       .  A
N338       C1409   1.364   1_455  A
N338        C339   1.365       .  A
C339        C528   1.445       .  S
C339        N340   1.354       .  A
N340        C341   1.353   1_455  A
C341        C493   1.426       .  S
C341       N1414   1.354       .  A
N342       C1413   1.355       .  A
C343        C535   1.445       .  S
C343        N344   1.363       .  A
C343        N348   1.357       .  A
N344        C345   1.363       .  A
C345        C479   1.445       .  S
C345        N346   1.358       .  A
N346        C347   1.356       .  A
C347        C505   1.435       .  S
C347        N348   1.354       .  A
C349        C478   1.444       .  S
C349        N350   1.363       .  A
C349        N354   1.354       .  A
N350       C1423   1.364   1_455  A
C351        C523   1.444       .  S
C351       N1422   1.363       .  A
C351        N352   1.356       .  A
N352       C1425   1.354       .  A
C353        C504   1.427       .  S
C353       N1424   1.353   1_455  A
C353        N354   1.354       .  A
Fe355       O371   2.078       .  S
Fe355       O361   2.070       .  S
Fe355       O368   2.074       .  S
Fe355       O360   2.075       .  S
Fe355       O366   1.981       .  S
Fe356       O359   2.080       .  S
Fe356       O363   2.070       .  S
Fe356       O367   2.079       .  S
Fe356       O372   2.076       .  S
Fe356       O366   1.981       .  S
Fe357       O375   2.072       .  S
Fe357       O362   2.077       .  S
Fe357       O369   2.079       .  S
Fe357       O358   2.078       .  S
Fe357       O366   1.982       .  S
O358        C365   1.270       .  A
O359        C373   1.270       .  A
O360        C365   1.269       .  A
O361        C364   1.270       .  A
O362        C374   1.270       .  A
O363        C376   1.268       .  A
C364        O369   1.270       .  A
C364        C482   1.442       .  S
C365        C471   1.446       .  S
O367        C370   1.271       .  A
O368        C370   1.270       .  A
C370        C473   1.444       .  S
O371        C376   1.268       .  A
O372        C374   1.270       .  A
C373        O375   1.270       .  A
C373        C480   1.444       .  S
C374        C476   1.446       .  S
C376        C486   1.444       .  S
Fe377       O393   2.077       .  S
Fe377       O383   2.070       .  S
Fe377       O390   2.076       .  S
Fe377       O382   2.074       .  S
Fe377       O388   1.987       .  S
Fe378       O381   2.072       .  S
Fe378       O385   2.073       .  S
Fe378       O389   2.070       .  S
Fe378       O394   2.078       .  S
Fe378       O388   1.986       .  S
Fe379       O397   2.074       .  S
Fe379       O384   2.079       .  S
Fe379       O391   2.082       .  S
Fe379       O380   2.077       .  S
Fe379       O388   1.986       .  S
O380        C387   1.269       .  A
O381        C395   1.268       .  A
O382        C387   1.270       .  A
O383        C386   1.269       .  A
O384        C396   1.271       .  A
O385        C398   1.270       .  A
C386        O391   1.271       .  A
C386        C487   1.445       .  S
C387        C470   1.446       .  S
O389        C392   1.268       .  A
O390        C392   1.269       .  A
C392        C465   1.443       .  S
O393        C398   1.269       .  A
O394        C396   1.270       .  A
C395        O397   1.269       .  A
C395        C477   1.444       .  S
C396        C468   1.447       .  S
C398        C483   1.444       .  S
C399        C453   1.451       .  S
C399        C400   1.409       .  A
C399        C940   1.410       .  A
C400        C449   1.451       .  S
C400        C401   1.410       .  A
C401        C461   1.448       .  S
C401       C1474   1.410       .  A
C402        C457   1.451       .  S
C402       C1473   1.409       .  A
C402        C939   1.409       .  A
C403        C445   1.448       .  S
C403        C938   1.407       .  A
C403       C1476   1.408   1_455  A
C404        C441   1.450       .  S
C404        C935   1.409   1_545  A
C404       C1475   1.409       .  A
C405        C474   1.444       .  S
C405        N942   1.364       .  A
C405        N410   1.357       .  A
N406        C941   1.364       .  A
N406        C407   1.362       .  A
C407        C530   1.443       .  S
C407        N408   1.355       .  A
N408        C409   1.354       .  A
C409        C460   1.434       .  S
C409        N946   1.356       .  A
N410        C945   1.355       .  A
C411        C514   1.445       .  S
C411        N412   1.355       .  A
C411        N952   1.363   1_545  A
N412        C949   1.354   1_545  A
C413        C456   1.435       .  S
C413        N948   1.357       .  A
C413        N414   1.355       .  A
N414        C415   1.356       .  A
C415        C469   1.446       .  S
C415        N416   1.363       .  A
N416        C947   1.364       .  A
C417        C472   1.447       .  S
C417        N418   1.364       .  A
C417        N422   1.357       .  A
N418       C1491   1.364       .  A
C419        C526   1.446       .  S
C419       N1490   1.364   1_455  A
C419        N420   1.355       .  A
N420       C1493   1.354   1_455  A
C421        C444   1.434       .  S
C421       N1492   1.354       .  A
C421        N422   1.357       .  A
C423        C517   1.442       .  S
C423        N424   1.362       .  A
C423        N428   1.355       .  A
N424        C425   1.363       .  A
C425        C466   1.444       .  S
C425        N426   1.357       .  A
N426        C427   1.355       .  A
C427        C448   1.432       .  S
C427        N428   1.354       .  A
C429        C467   1.447       .  S
C429        N430   1.356       .  A
C429       N1506   1.364       .  A
N430       C1503   1.355       .  A
C431        C464   1.432       .  S
C431       N1502   1.354       .  A
C431        N432   1.355       .  A
N432        C433   1.357       .  A
C433        C520   1.445       .  S
C433        N434   1.364       .  A
N434       C1501   1.363       .  A
C435        C531   1.447       .  S
C435        N436   1.364       .  A
C435        N440   1.358       .  A
N436        C437   1.363       .  A
C437        C475   1.446       .  S
C437        N438   1.356       .  A
N438        C439   1.355       .  A
C439        C452   1.435       .  S
C439        N440   1.356       .  A
C441        C442   1.205       .  T
C442        C443   1.410       .  S
C443        C444   1.205       .  T
C445        C446   1.203       .  T
C446        C447   1.408       .  S
C447        C448   1.203       .  T
C449        C450   1.205       .  T
C450        C451   1.411       .  S
C451        C452   1.205       .  T
C453        C454   1.205       .  T
C454        C455   1.411       .  S
C455        C456   1.205       .  T
C457        C458   1.205       .  T
C458        C459   1.410       .  S
C459        C460   1.205       .  T
C461        C462   1.204       .  T
C462        C463   1.408       .  S
C463        C464   1.203       .  T
C465        C466   1.211       .  T
C467        C468   1.213       .  T
C469        C470   1.212       .  T
C471        C472   1.212       .  T
C473        C474   1.211       .  T
C475        C476   1.212       .  T
C477        C478   1.211       .  T
C479        C480   1.211       .  T
C481        C482   1.210       .  T
C483        C484   1.211       .  T
C485        C486   1.211       .  T
C487        C488   1.212       .  T
C489        C490   1.203       .  T
C490        C491   1.408       .  S
C491        C492   1.203       .  T
C493        C494   1.201       .  T
C494        C495   1.403       .  S
C495        C496   1.201       .  T
C497        C498   1.203       .  T
C498        C499   1.406       .  S
C499        C500   1.202       .  T
C501        C502   1.201       .  T
C502        C503   1.403       .  S
C503        C504   1.201       .  T
C505        C506   1.205       .  T
C506        C507   1.411       .  S
C507        C508   1.205       .  T
C509        C510   1.203       .  T
C510        C511   1.407       .  S
C511        C512   1.203       .  T
C513        C514   1.211       .  T
C515        C516   1.213       .  T
C517        C518   1.211       .  T
C519        C520   1.212       .  T
C521        C522   1.211       .  T
C523        C524   1.212       .  T
C525        C526   1.213       .  T
C527        C528   1.212       .  T
C529        C530   1.210       .  T
C531        C532   1.213       .  T
C533        C534   1.210       .  T
C535        C536   1.212       .  T
Fe537       O553   2.077   1_556  S
Fe537       O543   2.075   1_556  S
Fe537       O818   2.078       .  S
Fe537       O810   2.074       .  S
Fe537       O816   1.984       .  S
Fe538       O809   2.077       .  S
Fe538       O813   2.073       .  S
Fe538       O549   2.073       .  S
Fe538       O554   2.076       .  S
Fe538       O548   1.982       .  S
Fe539       O825   2.076       .  S
Fe539       O544   2.074       .  S
Fe539       O819   2.078       .  S
Fe539       O540   2.079       .  S
Fe539       O548   1.983       .  S
O540        C547   1.270       .  A
O541       Fe806   2.076   1_554  S
O541        C555   1.269       .  A
O542       Fe805   2.072       .  S
O542        C547   1.269       .  A
O543        C546   1.270       .  A
O544        C556   1.269       .  A
O545       Fe806   2.075   1_554  S
O545        C558   1.270       .  A
C546        O551   1.269       .  A
C546        C804   1.445       .  S
C547        C800   1.444       .  S
O548       Fe805   1.982       .  S
O549        C552   1.269       .  A
O550       Fe805   2.077       .  S
O550        C552   1.270       .  A
O551       Fe807   2.077   1_554  S
C552        C797   1.444       .  S
O553        C558   1.269       .  A
O554        C556   1.270       .  A
C555        O557   1.271       .  A
C555        C795   1.446       .  S
C556        C793   1.444       .  S
O557       Fe807   2.077   1_554  S
C558        C802   1.445       .  S
Fe559       O843   2.071   1_554  S
Fe559       O833   2.074   1_554  S
Fe559       O572   2.070       .  S
Fe559       O564   2.075       .  S
Fe559       O570   1.988       .  S
Fe560       O831   2.073   1_554  S
Fe560       O835   2.082   1_554  S
Fe560       O571   2.077       .  S
Fe560       O576   2.079       .  S
Fe560       O570   1.987       .  S
Fe561       O847   2.076   1_554  S
Fe561       O566   2.077       .  S
Fe561       O841   2.073   1_554  S
Fe561       O562   2.072       .  S
Fe561       O570   1.987       .  S
O562        C569   1.269       .  A
O563       Fe828   2.075       .  S
O563        C577   1.270       .  A
O564        C569   1.269       .  A
O565       Fe827   2.076       .  S
O565        C568   1.270       .  A
O566        C578   1.270       .  A
O567       Fe828   2.079       .  S
O567        C580   1.271       .  A
C568        O573   1.271       .  A
C568        C787   1.446       .  S
C569        C792   1.443       .  S
O571        C574   1.269       .  A
O572        C574   1.269       .  A
O573       Fe829   2.078       .  S
C574        C784   1.444       .  S
O575       Fe827   2.078       .  S
O575        C580   1.271       .  A
O576        C578   1.271       .  A
C577        O579   1.270       .  A
C577        C786   1.444       .  S
C578        C789   1.447       .  S
O579       Fe829   2.077       .  S
C580        C781   1.447       .  S
C581        C780   1.447       .  S
C581       C1654   1.408       .  A
C582        C764   1.448       .  S
C582       C1653   1.408       .  A
C582        C583   1.408   1_655  A
C583        C757   1.447       .  S
C583        C584   1.408       .  A
C584        C765   1.449       .  S
C585        C769   1.447       .  S
C585       C1658   1.408   1_455  A
C586        C776   1.450       .  S
C586       C1657   1.409       .  A
C587        C756   1.447       .  S
C587        N588   1.357       .  A
C589        C777   1.431       .  S
C589        N590   1.355       .  A
N590        C591   1.356       .  A
C591        C783   1.445       .  S
C591        N592   1.363       .  A
C593        C801   1.445       .  S
C593        N598   1.355       .  A
N594        C595   1.365       .  A
C595        C753   1.447       .  S
C595        N596   1.357       .  A
N596        C597   1.356       .  A
C597        C768   1.432       .  S
C599        C790   1.447       .  S
C599        N600   1.355       .  A
C599        N604   1.365       .  A
N600        C601   1.354       .  A
C601        C760   1.431       .  S
C601        N602   1.355       .  A
N602        C603   1.356       .  A
C603        C752   1.447       .  S
C603        N604   1.365       .  A
C605        C749   1.447       .  S
C605       N1678   1.364       .  A
C605        N610   1.355       .  A
N606       C1677   1.364   1_455  A
N606        C607   1.364       .  A
C607        C796   1.446       .  S
C607        N608   1.354       .  A
N608        C609   1.354   1_455  A
C609        C761   1.431       .  S
C609       N1682   1.356       .  A
N610       C1681   1.355       .  A
C611        C803   1.446       .  S
C611        N612   1.363       .  A
C611        N616   1.356       .  A
N612        C613   1.364       .  A
C613        C747   1.447       .  S
C613        N614   1.358       .  A
N614        C615   1.356       .  A
C615        C773   1.434       .  S
C615        N616   1.354       .  A
C617        C746   1.447       .  S
C617        N618   1.364       .  A
C617        N622   1.355       .  A
N618       C1691   1.365   1_455  A
C619        C791   1.444       .  S
C619       N1690   1.363       .  A
C619        N620   1.355       .  A
N620       C1693   1.354       .  A
C621        C772   1.431       .  S
C621       N1692   1.354   1_455  A
C621        N622   1.355       .  A
Fe623       O639   2.079       .  S
Fe623       O629   2.078       .  S
Fe623       O636   2.080       .  S
Fe623       O628   2.075       .  S
Fe623       O634   1.985       .  S
Fe624       O627   2.080       .  S
Fe624       O631   2.076       .  S
Fe624       O635   2.076       .  S
Fe624       O640   2.080       .  S
Fe624       O634   1.986       .  S
Fe625       O643   2.073       .  S
Fe625       O630   2.072       .  S
Fe625       O637   2.075       .  S
Fe625       O626   2.076       .  S
Fe625       O634   1.986       .  S
O626        C633   1.269       .  A
O627        C641   1.270       .  A
O628        C633   1.270       .  A
O629        C632   1.270       .  A
O630        C642   1.270       .  A
O631        C644   1.270       .  A
C632        O637   1.269       .  A
C632        C750   1.446       .  S
C633        C739   1.444       .  S
O635        C638   1.270       .  A
O636        C638   1.270       .  A
C638        C741   1.448       .  S
O639        C644   1.271       .  A
O640        C642   1.270       .  A
C641        O643   1.269       .  A
C641        C748   1.446       .  S
C642        C744   1.445       .  S
C644        C754   1.446       .  S
Fe645       O661   2.076       .  S
Fe645       O651   2.076       .  S
Fe645       O658   2.078       .  S
Fe645       O650   2.070       .  S
Fe645       O656   1.987       .  S
Fe646       O649   2.076       .  S
Fe646       O653   2.078       .  S
Fe646       O657   2.071       .  S
Fe646       O662   2.078       .  S
Fe646       O656   1.987       .  S
Fe647       O665   2.076       .  S
Fe647       O652   2.074       .  S
Fe647       O659   2.079       .  S
Fe647       O648   2.078       .  S
Fe647       O656   1.988       .  S
O648        C655   1.270       .  A
O649        C663   1.269       .  A
O650        C655   1.269       .  A
O651        C654   1.270       .  A
O652        C664   1.269       .  A
O653        C666   1.271       .  A
C654        O659   1.270       .  A
C654        C755   1.447       .  S
C655        C738   1.443       .  S
O657        C660   1.269       .  A
O658        C660   1.270       .  A
C660        C733   1.444       .  S
O661        C666   1.269       .  A
O662        C664   1.270       .  A
C663        O665   1.270       .  A
C663        C745   1.446       .  S
C664        C736   1.446       .  S
C666        C751   1.447       .  S
C667        C721   1.451       .  S
C667        C668   1.409       .  A
C668        C717   1.449       .  S
C668        C669   1.410       .  A
C669        C729   1.447       .  S
C669       C1742   1.409   1_565  A
C670        C725   1.450       .  S
C670       C1741   1.408   1_545  A
C671        C713   1.451       .  S
C671       C1744   1.408   1_455  A
C672        C709   1.445       .  S
C672       C1743   1.406       .  A
C673        C742   1.448       .  S
C673        N678   1.356       .  A
N674        C675   1.363   1_545  A
C675        C798   1.445       .  S
C675        N676   1.356       .  A
N676        C677   1.355   1_565  A
C677        C728   1.433       .  S
C679        C782   1.448       .  S
C679        N680   1.356       .  A
C681        C724   1.435       .  S
C681        N682   1.356       .  A
N682        C683   1.358       .  A
C683        C737   1.444       .  S
C683        N684   1.363       .  A
C685        C740   1.445       .  S
C685        N686   1.363       .  A
C685        N690   1.355       .  A
N686       C1759   1.364       .  A
C687        C794   1.444       .  S
C687       N1758   1.363   1_455  A
C687        N688   1.355       .  A
N688       C1761   1.354   1_455  A
C689        C712   1.429       .  S
C689       N1760   1.354       .  A
C689        N690   1.354       .  A
C691        C785   1.445       .  S
C691        N692   1.362       .  A
C691        N696   1.356       .  A
N692        C693   1.362       .  A
C693        C734   1.445       .  S
C693        N694   1.358       .  A
N694        C695   1.356       .  A
C695        C716   1.435       .  S
C695        N696   1.355       .  A
C697        C735   1.446       .  S
C697        N698   1.357       .  A
C697       N1774   1.363       .  A
N698       C1771   1.356       .  A
C699        C732   1.431       .  S
C699       N1770   1.355       .  A
C699        N700   1.354       .  A
N700        C701   1.355       .  A
C701        C788   1.446       .  S
C701        N702   1.364       .  A
N702       C1769   1.364       .  A
C703        C799   1.445       .  S
C703        N704   1.362       .  A
C703        N708   1.356       .  A
N704        C705   1.363       .  A
C705        C743   1.445       .  S
C705        N706   1.357       .  A
N706        C707   1.355       .  A
C707        C720   1.433       .  S
C707        N708   1.355       .  A
C709        C710   1.202       .  T
C710        C711   1.405       .  S
C711        C712   1.202       .  T
C713        C714   1.205       .  T
C714        C715   1.411       .  S
C715        C716   1.205       .  T
C717        C718   1.204       .  T
C718        C719   1.409       .  S
C719        C720   1.204       .  T
C721        C722   1.205       .  T
C722        C723   1.411       .  S
C723        C724   1.205       .  T
C725        C726   1.204       .  T
C726        C727   1.409       .  S
C727        C728   1.204       .  T
C729        C730   1.203       .  T
C730        C731   1.407       .  S
C731        C732   1.203       .  T
C733        C734   1.211       .  T
C735        C736   1.212       .  T
C737        C738   1.211       .  T
C739        C740   1.211       .  T
C741        C742   1.214       .  T
C743        C744   1.212       .  T
C745        C746   1.212       .  T
C747        C748   1.213       .  T
C749        C750   1.212       .  T
C751        C752   1.213       .  T
C753        C754   1.213       .  T
C755        C756   1.213       .  T
C757        C758   1.203       .  T
C758        C759   1.407       .  S
C759        C760   1.203       .  T
C761        C762   1.204       .  T
C762        C763   1.408       .  S
C763        C764   1.204       .  T
C765        C766   1.204       .  T
C766        C767   1.409       .  S
C767        C768   1.204       .  T
C769        C770   1.203       .  T
C770        C771   1.407       .  S
C771        C772   1.203       .  T
C773        C774   1.204       .  T
C774        C775   1.410       .  S
C775        C776   1.205       .  T
C777        C778   1.203       .  T
C778        C779   1.407       .  S
C779        C780   1.203       .  T
C781        C782   1.213       .  T
C783        C784   1.211       .  T
C785        C786   1.212       .  T
C787        C788   1.213       .  T
C789        C790   1.213       .  T
C791        C792   1.211       .  T
C793        C794   1.212       .  T
C795        C796   1.213       .  T
C797        C798   1.211       .  T
C799        C800   1.212       .  T
C801        C802   1.212       .  T
C803        C804   1.212       .  T
Fe805       O821   2.077       .  S
Fe805       O811   2.074       .  S
Fe806       O817   2.072       .  S
Fe806       O822   2.077       .  S
Fe806       O816   1.984       .  S
Fe807       O812   2.073       .  S
Fe807       O808   2.080       .  S
Fe807       O816   1.984       .  S
O808        C815   1.271       .  A
O809        C823   1.269       .  A
O810        C815   1.269       .  A
O811        C814   1.270       .  A
O812        C824   1.269       .  A
O813        C826   1.270       .  A
C814        O819   1.270       .  A
C814       C1072   1.445       .  S
C815       C1068   1.446       .  S
O817        C820   1.269       .  A
O818        C820   1.270       .  A
C820       C1065   1.444       .  S
O821        C826   1.269       .  A
O822        C824   1.270       .  A
C823        O825   1.271       .  A
C823       C1063   1.445       .  S
C824       C1061   1.444       .  S
C826       C1070   1.444       .  S
Fe827       O840   2.070       .  S
Fe827       O832   2.077       .  S
Fe827       O838   1.980       .  S
Fe828       O839   2.079       .  S
Fe828       O844   2.076       .  S
Fe828       O838   1.980       .  S
Fe829       O834   2.078       .  S
Fe829       O830   2.070       .  S
Fe829       O838   1.981       .  S
O830        C837   1.270       .  A
O831        C845   1.269       .  A
O832        C837   1.269       .  A
O833        C836   1.269       .  A
O834        C846   1.269       .  A
O835        C848   1.271       .  A
C836        O841   1.270       .  A
C836       C1055   1.443       .  S
C837       C1060   1.441       .  S
O839        C842   1.269       .  A
O840        C842   1.269       .  A
C842       C1052   1.444       .  S
O843        C848   1.269       .  A
O844        C846   1.271       .  A
C845        O847   1.269       .  A
C845       C1054   1.444       .  S
C846       C1057   1.445       .  S
C848       C1049   1.446       .  S
C849       C1048   1.452       .  S
C849       C1922   1.410       .  A
C850       C1032   1.445       .  S
C850       C1921   1.406       .  A
C850        C851   1.408   1_655  A
C851       C1025   1.445       .  S
C851        C852   1.407       .  A
C852       C1033   1.449       .  S
C853       C1037   1.445       .  S
C853       C1926   1.407   1_455  A
C854       C1044   1.448       .  S
C854       C1925   1.408       .  A
C855       C1024   1.448       .  S
C855        N856   1.356       .  A
C857       C1045   1.436       .  S
C857        N858   1.355       .  A
N858        C859   1.356       .  A
C859       C1051   1.445       .  S
C859        N860   1.362       .  A
C861       C1069   1.445       .  S
C861        N866   1.354       .  A
N862        C863   1.363       .  A
C863       C1021   1.443       .  S
C863        N864   1.356       .  A
N864        C865   1.355       .  A
C865       C1036   1.433       .  S
C867       C1058   1.445       .  S
C867        N868   1.354       .  A
C867        N872   1.364       .  A
N868        C869   1.353       .  A
C869       C1028   1.429       .  S
C869        N870   1.354       .  A
N870        C871   1.356       .  A
C871       C1020   1.446       .  S
C871        N872   1.364       .  A
C873       C1017   1.445       .  S
C873       N1946   1.364       .  A
C873        N878   1.358       .  A
N874       C1945   1.364       .  A
N874        C875   1.364   1_655  A
C875       C1064   1.445       .  S
C875        N876   1.353       .  A
N876        C877   1.353   1_455  A
C877       C1029   1.428       .  S
C877       N1950   1.355       .  A
N878       C1949   1.357       .  A
C879       C1071   1.445       .  S
C879        N880   1.363       .  A
C879        N884   1.355       .  A
N880        C881   1.364       .  A
C881       C1015   1.446       .  S
C881        N882   1.357       .  A
N882        C883   1.355       .  A
C883       C1041   1.431       .  S
C883        N884   1.354       .  A
C885       C1014   1.446       .  S
C885        N886   1.364       .  A
C885        N890   1.355       .  A
N886       C1959   1.365   1_455  A
C887       C1059   1.442       .  S
C887       N1958   1.363       .  A
C887        N888   1.355       .  A
N888       C1961   1.354       .  A
C889       C1040   1.429       .  S
C889       N1960   1.353   1_455  A
C889        N890   1.355       .  A
Fe891       O907   2.076       .  S
Fe891       O897   2.073       .  S
Fe891       O904   2.079       .  S
Fe891       O896   2.074       .  S
Fe891       O902   1.987       .  S
Fe892       O895   2.077       .  S
Fe892       O899   2.071       .  S
Fe892       O903   2.073       .  S
Fe892       O908   2.075       .  S
Fe892       O902   1.985       .  S
Fe893       O911   2.071       .  S
Fe893       O898   2.078       .  S
Fe893       O905   2.080       .  S
Fe893       O894   2.076       .  S
Fe893       O902   1.985       .  S
O894        C901   1.269       .  A
O895        C909   1.269       .  A
O896        C901   1.269       .  A
O897        C900   1.270       .  A
O898        C910   1.271       .  A
O899        C912   1.269       .  A
C900        O905   1.270       .  A
C900       C1018   1.444       .  S
C901       C1007   1.445       .  S
O903        C906   1.269       .  A
O904        C906   1.270       .  A
C906       C1009   1.444       .  S
O907        C912   1.269       .  A
O908        C910   1.270       .  A
C909        O911   1.268       .  A
C909       C1016   1.445       .  S
C910       C1012   1.445       .  S
C912       C1022   1.443       .  S
Fe913       O929   2.076       .  S
Fe913       O919   2.079       .  S
Fe913       O926   2.080       .  S
Fe913       O918   2.072       .  S
Fe913       O924   1.984       .  S
Fe914       O917   2.075       .  S
Fe914       O921   2.077       .  S
Fe914       O925   2.071       .  S
Fe914       O930   2.080       .  S
Fe914       O924   1.984       .  S
Fe915       O933   2.076       .  S
Fe915       O920   2.074       .  S
Fe915       O927   2.078       .  S
Fe915       O916   2.079       .  S
Fe915       O924   1.984       .  S
O916        C923   1.270       .  A
O917        C931   1.269       .  A
O918        C923   1.270       .  A
O919        C922   1.271       .  A
O920        C932   1.270       .  A
O921        C934   1.270       .  A
C922        O927   1.270       .  A
C922       C1023   1.447       .  S
C923       C1006   1.444       .  S
O925        C928   1.269       .  A
O926        C928   1.270       .  A
C928       C1001   1.444       .  S
O929        C934   1.270       .  A
O930        C932   1.270       .  A
C931        O933   1.270       .  A
C931       C1013   1.445       .  S
C932       C1004   1.446       .  S
C934       C1019   1.446       .  S
C935        C989   1.447       .  S
C935        C936   1.409       .  A
C936        C985   1.448       .  S
C936        C937   1.408       .  A
C937        C997   1.450       .  S
C937       C2010   1.409   1_565  A
C938        C993   1.449       .  S
C938       C2009   1.408   1_545  A
C939        C981   1.448       .  S
C939       C2012   1.409   1_455  A
C940        C977   1.450       .  S
C940       C2011   1.410       .  A
C941       C1010   1.445       .  S
C941        N946   1.358       .  A
N942        C943   1.363   1_545  A
C943       C1066   1.445       .  S
C943        N944   1.356       .  A
N944        C945   1.355   1_565  A
C945        C996   1.433       .  S
C947       C1050   1.447       .  S
C947        N948   1.358       .  A
C949        C992   1.431       .  S
C949        N950   1.354       .  A
N950        C951   1.356       .  A
C951       C1005   1.444       .  S
C951        N952   1.365       .  A
C953       C1008   1.446       .  S
C953        N954   1.363       .  A
C953        N958   1.356       .  A
N954       C2027   1.364       .  A
C955       C1062   1.445       .  S
C955       N2026   1.364   1_455  A
C955        N956   1.355       .  A
N956       C2029   1.354   1_455  A
C957        C980   1.434       .  S
C957       N2028   1.355       .  A
C957        N958   1.355       .  A
C959       C1053   1.445       .  S
C959        N960   1.363       .  A
C959        N964   1.356       .  A
N960        C961   1.363       .  A
C961       C1002   1.445       .  S
C961        N962   1.356       .  A
N962        C963   1.355       .  A
C963        C984   1.432       .  S
C963        N964   1.354       .  A
C965       C1003   1.446       .  S
C965        N966   1.356       .  A
C965       N2042   1.365       .  A
N966       C2039   1.355       .  A
C967       C1000   1.434       .  S
C967       N2038   1.356       .  A
C967        N968   1.354       .  A
N968        C969   1.356       .  A
C969       C1056   1.443       .  S
C969        N970   1.363       .  A
N970       C2037   1.364       .  A
C971       C1067   1.446       .  S
C971        N972   1.364       .  A
C971        N976   1.356       .  A
N972        C973   1.364       .  A
C973       C1011   1.445       .  S
C973        N974   1.357       .  A
N974        C975   1.355       .  A
C975        C988   1.432       .  S
C975        N976   1.354       .  A
C977        C978   1.205       .  T
C978        C979   1.410       .  S
C979        C980   1.205       .  T
C981        C982   1.203       .  T
C982        C983   1.408       .  S
C983        C984   1.203       .  T
C985        C986   1.204       .  T
C986        C987   1.408       .  S
C987        C988   1.203       .  T
C989        C990   1.203       .  T
C990        C991   1.407       .  S
C991        C992   1.203       .  T
C993        C994   1.204       .  T
C994        C995   1.409       .  S
C995        C996   1.204       .  T
C997        C998   1.205       .  T
C998        C999   1.410       .  S
C999       C1000   1.205       .  T
C1001      C1002   1.212       .  T
C1003      C1004   1.212       .  T
C1005      C1006   1.212       .  T
C1007      C1008   1.212       .  T
C1009      C1010   1.212       .  T
C1011      C1012   1.212       .  T
C1013      C1014   1.211       .  T
C1015      C1016   1.212       .  T
C1017      C1018   1.211       .  T
C1019      C1020   1.212       .  T
C1021      C1022   1.210       .  T
C1023      C1024   1.213       .  T
C1025      C1026   1.202       .  T
C1026      C1027   1.405       .  S
C1027      C1028   1.201       .  T
C1029      C1030   1.202       .  T
C1030      C1031   1.405       .  S
C1031      C1032   1.202       .  T
C1033      C1034   1.204       .  T
C1034      C1035   1.409       .  S
C1035      C1036   1.204       .  T
C1037      C1038   1.202       .  T
C1038      C1039   1.405       .  S
C1039      C1040   1.202       .  T
C1041      C1042   1.203       .  T
C1042      C1043   1.408       .  S
C1043      C1044   1.203       .  T
C1045      C1046   1.206       .  T
C1046      C1047   1.412       .  S
C1047      C1048   1.206       .  T
C1049      C1050   1.212       .  T
C1051      C1052   1.211       .  T
C1053      C1054   1.212       .  T
C1055      C1056   1.211       .  T
C1057      C1058   1.212       .  T
C1059      C1060   1.210       .  T
C1061      C1062   1.212       .  T
C1063      C1064   1.212       .  T
C1065      C1066   1.211       .  T
C1067      C1068   1.213       .  T
C1069      C1070   1.211       .  T
C1071      C1072   1.212       .  T
Fe1073     O1089   2.079       .  S
Fe1073     O1079   2.076       .  S
Fe1073     O1354   2.080   1_554  S
Fe1073     O1346   2.074   1_554  S
Fe1073     O1352   1.988       .  S
Fe1074     O1345   2.076       .  S
Fe1074     O1349   2.072       .  S
Fe1074     O1085   2.071       .  S
Fe1074     O1090   2.077       .  S
Fe1074     O1084   1.987       .  S
Fe1075     O1361   2.070       .  S
Fe1075     O1080   2.074       .  S
Fe1075     O1355   2.077       .  S
Fe1075     O1076   2.075       .  S
Fe1075     O1084   1.986       .  S
O1076      C1083   1.268       .  A
O1077     Fe1342   2.073       .  S
O1077      C1091   1.268       .  A
O1078     Fe1341   2.070       .  S
O1078      C1083   1.268       .  A
O1079      C1082   1.271       .  A
O1080      C1092   1.270       .  A
O1081     Fe1342   2.070       .  S
O1081      C1094   1.269       .  A
C1082      O1087   1.270       .  A
C1082      C1340   1.445       .  S
C1083      C1336   1.443       .  S
O1084     Fe1341   1.987       .  S
O1085      C1088   1.269       .  A
O1086     Fe1341   2.075       .  S
O1086      C1088   1.269       .  A
O1087     Fe1343   2.077       .  S
C1088      C1333   1.442       .  S
O1089      C1094   1.270       .  A
O1090      C1092   1.269       .  A
C1091      O1093   1.269       .  A
C1091      C1331   1.444       .  S
C1092      C1329   1.445       .  S
O1093     Fe1343   2.075       .  S
C1094      C1338   1.444       .  S
Fe1095     O1379   2.075       .  S
Fe1095     O1369   2.079       .  S
Fe1095     O1108   2.074   1_556  S
Fe1095     O1100   2.077   1_556  S
Fe1095     O1106   1.981       .  S
Fe1096     O1367   2.076       .  S
Fe1096     O1371   2.079       .  S
Fe1096     O1107   2.078   1_556  S
Fe1096     O1112   2.074   1_556  S
Fe1096     O1106   1.982       .  S
Fe1097     O1383   2.080       .  S
Fe1097     O1102   2.078   1_556  S
Fe1097     O1377   2.077       .  S
Fe1097     O1098   2.075   1_556  S
Fe1097     O1106   1.981       .  S
O1098      C1105   1.271       .  A
O1099     Fe1364   2.073       .  S
O1099      C1113   1.271       .  A
O1100      C1105   1.269       .  A
O1101     Fe1363   2.077       .  S
O1101      C1104   1.269       .  A
O1102      C1114   1.269       .  A
O1103     Fe1364   2.077       .  S
O1103      C1116   1.269       .  A
C1104      O1109   1.270       .  A
C1104      C1323   1.444       .  S
C1105      C1328   1.444       .  S
O1107      C1110   1.269       .  A
O1108      C1110   1.270       .  A
O1109     Fe1365   2.073       .  S
C1110      C1320   1.445       .  S
O1111     Fe1363   2.073       .  S
O1111      C1116   1.270       .  A
O1112      C1114   1.270       .  A
C1113      O1115   1.270       .  A
C1113      C1322   1.444       .  S
C1114      C1325   1.444       .  S
O1115     Fe1365   2.078       .  S
C1116      C1317   1.444       .  S
C1117      C1316   1.448       .  S
C1117      C1658   1.407       .  A
C1118      C1300   1.448       .  S
C1118      C1119   1.409       .  A
C1119      C1293   1.448       .  S
C1119      C1120   1.409       .  A
C1120      C1301   1.450       .  S
C1120      C1657   1.409   1_545  A
C1121      C1305   1.447       .  S
C1121      C1656   1.408       .  A
C1122      C1312   1.448       .  S
C1122      C1653   1.408       .  A
C1123      C1292   1.444       .  S
C1123      N1124   1.356       .  A
C1123      N1664   1.363       .  A
N1124      C1661   1.355       .  A
C1125      C1313   1.431       .  S
C1125      N1660   1.355       .  A
C1125      N1126   1.354   1_565  A
N1126      C1127   1.354       .  A
C1127      C1319   1.446       .  S
C1127      N1128   1.363       .  A
N1128      C1659   1.365   1_545  A
C1129      C1337   1.445       .  S
C1129      N1666   1.363       .  A
C1129      N1134   1.356       .  A
N1130      C1665   1.363   1_545  A
N1130      C1131   1.364       .  A
C1131      C1289   1.447       .  S
C1131      N1132   1.357       .  A
N1132      C1133   1.356       .  A
C1133      C1304   1.434       .  S
C1133      N1670   1.355   1_545  A
N1134      C1669   1.355       .  A
C1135      C1326   1.445       .  S
C1135      N1136   1.355       .  A
C1135      N1140   1.363       .  A
N1136      C1137   1.354       .  A
C1137      C1296   1.432       .  S
C1137      N1138   1.355       .  A
N1138      C1139   1.357       .  A
C1139      C1288   1.445       .  S
C1139      N1140   1.364       .  A
C1141      C1285   1.448       .  S
C1141      N1146   1.356       .  A
N1142      C1143   1.364       .  A
C1143      C1332   1.445       .  S
C1143      N1144   1.354       .  A
N1144      C1145   1.354       .  A
C1145      C1297   1.432       .  S
C1147      C1339   1.445       .  S
C1147      N1148   1.363       .  A
C1147      N1152   1.355       .  A
N1148      C1149   1.364       .  A
C1149      C1283   1.445       .  S
C1149      N1150   1.357       .  A
N1150      C1151   1.355       .  A
C1151      C1309   1.431       .  S
C1151      N1152   1.354       .  A
C1153      C1282   1.445       .  S
C1153      N1154   1.362       .  A
C1153      N1158   1.355       .  A
C1155      C1327   1.444       .  S
C1155      N1156   1.354       .  A
C1157      C1308   1.431       .  S
C1157      N1158   1.355       .  A
Fe1159     O1175   2.078       .  S
Fe1159     O1165   2.078       .  S
Fe1159     O1172   2.080       .  S
Fe1159     O1164   2.072       .  S
Fe1159     O1170   1.988       .  S
Fe1160     O1163   2.075       .  S
Fe1160     O1167   2.075       .  S
Fe1160     O1171   2.070       .  S
Fe1160     O1176   2.078       .  S
Fe1160     O1170   1.988       .  S
Fe1161     O1179   2.075       .  S
Fe1161     O1166   2.071       .  S
Fe1161     O1173   2.077       .  S
Fe1161     O1162   2.078       .  S
Fe1161     O1170   1.987       .  S
O1162      C1169   1.269       .  A
O1163      C1177   1.269       .  A
O1164      C1169   1.269       .  A
O1165      C1168   1.271       .  A
O1166      C1178   1.269       .  A
O1167      C1180   1.270       .  A
C1168      O1173   1.269       .  A
C1168      C1286   1.447       .  S
C1169      C1275   1.444       .  S
O1171      C1174   1.269       .  A
O1172      C1174   1.270       .  A
C1174      C1277   1.443       .  S
O1175      C1180   1.269       .  A
O1176      C1178   1.269       .  A
C1177      O1179   1.270       .  A
C1177      C1284   1.445       .  S
C1178      C1280   1.444       .  S
C1180      C1290   1.446       .  S
Fe1181     O1197   2.077       .  S
Fe1181     O1187   2.071       .  S
Fe1181     O1194   2.077       .  S
Fe1181     O1186   2.075       .  S
Fe1181     O1192   1.987       .  S
Fe1182     O1185   2.074       .  S
Fe1182     O1189   2.073       .  S
Fe1182     O1193   2.072       .  S
Fe1182     O1198   2.078       .  S
Fe1182     O1192   1.986       .  S
Fe1183     O1201   2.074       .  S
Fe1183     O1188   2.075       .  S
Fe1183     O1195   2.077       .  S
Fe1183     O1184   2.079       .  S
Fe1183     O1192   1.986       .  S
O1184      C1191   1.270       .  A
O1185      C1199   1.269       .  A
O1186      C1191   1.270       .  A
O1187      C1190   1.269       .  A
O1188      C1200   1.271       .  A
O1189      C1202   1.269       .  A
C1190      O1195   1.270       .  A
C1190      C1291   1.443       .  S
C1191      C1274   1.447       .  S
O1193      C1196   1.270       .  A
O1194      C1196   1.269       .  A
C1196      C1269   1.444       .  S
O1197      C1202   1.269       .  A
O1198      C1200   1.270       .  A
C1199      O1201   1.269       .  A
C1199      C1281   1.444       .  S
C1200      C1272   1.446       .  S
C1202      C1287   1.445       .  S
C1203      C1257   1.448       .  S
C1203      C1204   1.408       .  A
C1203      C1744   1.409       .  A
C1204      C1253   1.451       .  S
C1204      C1205   1.408   1_655  A
C1205      C1265   1.447       .  S
C1206      C1261   1.445       .  S
C1206      C1743   1.406       .  A
C1207      C1249   1.447       .  S
C1207      C1742   1.408       .  A
C1208      C1245   1.451       .  S
C1208      C1739   1.409   1_545  A
C1209      C1278   1.444       .  S
C1209      N1746   1.363       .  A
C1209      N1214   1.358       .  A
N1210      C1745   1.363       .  A
N1210      C1211   1.363       .  A
C1211      C1334   1.442       .  S
C1211      N1212   1.355       .  A
N1212      C1213   1.354       .  A
C1213      C1264   1.429       .  S
C1213      N1750   1.354       .  A
N1214      C1749   1.356       .  A
C1215      C1318   1.444       .  S
C1215      N1216   1.355       .  A
C1215      N1756   1.363   1_545  A
N1216      C1753   1.354   1_545  A
C1217      C1260   1.431       .  S
C1217      N1752   1.355       .  A
C1217      N1218   1.355       .  A
N1218      C1219   1.356       .  A
C1219      C1273   1.447       .  S
C1219      N1220   1.365       .  A
N1220      C1751   1.364       .  A
C1221      C1276   1.445       .  S
C1221      N1222   1.363       .  A
C1221      N1226   1.357       .  A
C1223      C1330   1.445       .  S
C1223      N1224   1.355       .  A
C1225      C1248   1.435       .  S
C1225      N1226   1.356       .  A
C1227      C1321   1.444       .  S
C1227      N1228   1.364       .  A
C1227      N1232   1.355       .  A
N1228      C1229   1.364       .  A
C1229      C1270   1.445       .  S
C1229      N1230   1.357       .  A
N1230      C1231   1.355       .  A
C1231      C1252   1.431       .  S
C1231      N1232   1.353       .  A
C1233      C1271   1.446       .  S
C1233      N1234   1.355       .  A
C1235      C1268   1.431       .  S
C1235      N1236   1.354   1_455  A
N1236      C1237   1.355       .  A
C1237      C1324   1.444       .  S
C1237      N1238   1.364       .  A
C1239      C1335   1.444       .  S
C1239      N1240   1.362       .  A
C1239      N1244   1.356       .  A
N1240      C1241   1.363       .  A
C1241      C1279   1.445       .  S
C1241      N1242   1.358       .  A
N1242      C1243   1.356       .  A
C1243      C1256   1.434       .  S
C1243      N1244   1.354       .  A
C1245      C1246   1.206       .  T
C1246      C1247   1.411       .  S
C1247      C1248   1.205       .  T
C1249      C1250   1.203       .  T
C1250      C1251   1.407       .  S
C1251      C1252   1.202       .  T
C1253      C1254   1.205       .  T
C1254      C1255   1.410       .  S
C1255      C1256   1.204       .  T
C1257      C1258   1.203       .  T
C1258      C1259   1.407       .  S
C1259      C1260   1.203       .  T
C1261      C1262   1.202       .  T
C1262      C1263   1.405       .  S
C1263      C1264   1.201       .  T
C1265      C1266   1.203       .  T
C1266      C1267   1.407       .  S
C1267      C1268   1.203       .  T
C1269      C1270   1.211       .  T
C1271      C1272   1.212       .  T
C1273      C1274   1.213       .  T
C1275      C1276   1.211       .  T
C1277      C1278   1.211       .  T
C1279      C1280   1.212       .  T
C1281      C1282   1.211       .  T
C1283      C1284   1.212       .  T
C1285      C1286   1.213       .  T
C1287      C1288   1.212       .  T
C1289      C1290   1.213       .  T
C1291      C1292   1.211       .  T
C1293      C1294   1.203       .  T
C1294      C1295   1.408       .  S
C1295      C1296   1.203       .  T
C1297      C1298   1.204       .  T
C1298      C1299   1.408       .  S
C1299      C1300   1.204       .  T
C1301      C1302   1.205       .  T
C1302      C1303   1.410       .  S
C1303      C1304   1.205       .  T
C1305      C1306   1.203       .  T
C1306      C1307   1.407       .  S
C1307      C1308   1.203       .  T
C1309      C1310   1.203       .  T
C1310      C1311   1.408       .  S
C1311      C1312   1.203       .  T
C1313      C1314   1.203       .  T
C1314      C1315   1.407       .  S
C1315      C1316   1.203       .  T
C1317      C1318   1.211       .  T
C1319      C1320   1.212       .  T
C1321      C1322   1.211       .  T
C1323      C1324   1.211       .  T
C1325      C1326   1.212       .  T
C1327      C1328   1.212       .  T
C1329      C1330   1.212       .  T
C1331      C1332   1.212       .  T
C1333      C1334   1.210       .  T
C1335      C1336   1.211       .  T
C1337      C1338   1.211       .  T
C1339      C1340   1.212       .  T
Fe1341     O1357   2.075       .  S
Fe1341     O1347   2.074       .  S
Fe1342     O1353   2.068   1_554  S
Fe1342     O1358   2.073   1_554  S
Fe1342     O1352   1.987       .  S
Fe1343     O1348   2.075   1_554  S
Fe1343     O1344   2.077   1_554  S
Fe1343     O1352   1.987       .  S
O1344      C1351   1.269       .  A
O1345      C1359   1.269       .  A
O1346      C1351   1.269       .  A
O1347      C1350   1.270       .  A
O1348      C1360   1.271       .  A
O1349      C1362   1.269       .  A
C1350      O1355   1.270       .  A
C1350      C1608   1.444       .  S
C1351      C1604   1.446       .  S
O1353      C1356   1.268       .  A
O1354      C1356   1.270       .  A
C1356      C1601   1.444       .  S
O1357      C1362   1.269       .  A
O1358      C1360   1.269       .  A
C1359      O1361   1.269       .  A
C1359      C1599   1.443       .  S
C1360      C1597   1.443       .  S
C1362      C1606   1.444       .  S
Fe1363     O1376   2.074       .  S
Fe1363     O1368   2.076       .  S
Fe1363     O1374   1.979       .  S
Fe1364     O1375   2.077       .  S
Fe1364     O1380   2.073       .  S
Fe1364     O1374   1.979       .  S
Fe1365     O1370   2.077       .  S
Fe1365     O1366   2.075       .  S
Fe1365     O1374   1.979       .  S
O1366      C1373   1.270       .  A
O1367      C1381   1.270       .  A
O1368      C1373   1.270       .  A
O1369      C1372   1.271       .  A
O1370      C1382   1.270       .  A
O1371      C1384   1.271       .  A
C1372      O1377   1.270       .  A
C1372      C1591   1.447       .  S
C1373      C1596   1.444       .  S
O1375      C1378   1.270       .  A
O1376      C1378   1.270       .  A
C1378      C1588   1.443       .  S
O1379      C1384   1.270       .  A
O1380      C1382   1.269       .  A
C1381      O1383   1.271       .  A
C1381      C1590   1.446       .  S
C1382      C1593   1.443       .  S
C1384      C1585   1.445       .  S
C1385      C1584   1.449       .  S
C1385      C1926   1.407       .  A
C1386      C1568   1.449       .  S
C1386      C1387   1.408       .  A
C1387      C1561   1.449       .  S
C1387      C1388   1.408       .  A
C1388      C1569   1.446       .  S
C1388      C1925   1.408   1_545  A
C1389      C1573   1.452       .  S
C1389      C1924   1.411       .  A
C1390      C1580   1.447       .  S
C1390      C1921   1.405       .  A
C1391      C1560   1.442       .  S
C1391      N1392   1.356       .  A
C1391      N1932   1.364       .  A
N1392      C1929   1.354       .  A
C1393      C1581   1.432       .  S
C1393      N1928   1.355       .  A
C1393      N1394   1.355   1_565  A
N1394      C1395   1.355       .  A
C1395      C1587   1.444       .  S
C1395      N1396   1.362   1_545  A
N1396      C1927   1.363       .  A
C1397      C1605   1.445       .  S
C1397      N1934   1.362       .  A
C1397      N1402   1.356       .  A
N1398      C1933   1.363   1_545  A
N1398      C1399   1.364       .  A
C1399      C1557   1.445       .  S
C1399      N1400   1.356       .  A
N1400      C1401   1.355       .  A
C1401      C1572   1.430       .  S
C1401      N1938   1.354   1_545  A
N1402      C1937   1.355       .  A
C1403      C1594   1.444       .  S
C1403      N1404   1.356       .  A
C1403      N1408   1.362       .  A
N1404      C1405   1.355       .  A
C1405      C1564   1.432       .  S
C1405      N1406   1.355       .  A
N1406      C1407   1.357       .  A
C1407      C1556   1.444       .  S
C1407      N1408   1.362       .  A
C1409      C1553   1.446       .  S
C1409      N1414   1.354       .  A
N1410      C1411   1.363       .  A
C1411      C1600   1.443       .  S
C1411      N1412   1.356       .  A
N1412      C1413   1.355       .  A
C1413      C1565   1.433       .  S
C1415      C1607   1.445       .  S
C1415      N1416   1.364       .  A
C1415      N1420   1.356       .  A
N1416      C1417   1.364       .  A
C1417      C1551   1.444       .  S
C1417      N1418   1.356       .  A
N1418      C1419   1.354       .  A
C1419      C1577   1.430       .  S
C1419      N1420   1.354       .  A
C1421      C1550   1.446       .  S
C1421      N1422   1.363       .  A
C1421      N1426   1.358       .  A
C1423      C1595   1.444       .  S
C1423      N1424   1.354       .  A
C1425      C1576   1.436       .  S
C1425      N1426   1.357       .  A
Fe1427     O1443   2.079       .  S
Fe1427     O1433   2.075       .  S
Fe1427     O1440   2.079       .  S
Fe1427     O1432   2.074       .  S
Fe1427     O1438   1.988       .  S
Fe1428     O1431   2.075       .  S
Fe1428     O1435   2.072       .  S
Fe1428     O1439   2.071       .  S
Fe1428     O1444   2.078       .  S
Fe1428     O1438   1.988       .  S
Fe1429     O1447   2.074       .  S
Fe1429     O1434   2.073       .  S
Fe1429     O1441   2.076       .  S
Fe1429     O1430   2.077       .  S
Fe1429     O1438   1.987       .  S
O1430      C1437   1.270       .  A
O1431      C1445   1.269       .  A
O1432      C1437   1.270       .  A
O1433      C1436   1.270       .  A
O1434      C1446   1.269       .  A
O1435      C1448   1.269       .  A
C1436      O1441   1.269       .  A
C1436      C1554   1.445       .  S
C1437      C1543   1.445       .  S
O1439      C1442   1.269       .  A
O1440      C1442   1.270       .  A
C1442      C1545   1.445       .  S
O1443      C1448   1.270       .  A
O1444      C1446   1.270       .  A
C1445      O1447   1.270       .  A
C1445      C1552   1.444       .  S
C1446      C1548   1.445       .  S
C1448      C1558   1.445       .  S
Fe1449     O1465   2.077       .  S
Fe1449     O1455   2.071       .  S
Fe1449     O1462   2.076       .  S
Fe1449     O1454   2.076       .  S
Fe1449     O1460   1.986       .  S
Fe1450     O1453   2.081       .  S
Fe1450     O1457   2.069       .  S
Fe1450     O1461   2.078       .  S
Fe1450     O1466   2.073       .  S
Fe1450     O1460   1.986       .  S
Fe1451     O1469   2.072       .  S
Fe1451     O1456   2.076       .  S
Fe1451     O1463   2.076       .  S
Fe1451     O1452   2.078       .  S
Fe1451     O1460   1.986       .  S
O1452      C1459   1.270       .  A
O1453      C1467   1.270       .  A
O1454      C1459   1.270       .  A
O1455      C1458   1.269       .  A
O1456      C1468   1.270       .  A
O1457      C1470   1.268       .  A
C1458      O1463   1.269       .  A
C1458      C1559   1.442       .  S
C1459      C1542   1.447       .  S
O1461      C1464   1.271       .  A
O1462      C1464   1.270       .  A
C1464      C1537   1.445       .  S
O1465      C1470   1.269       .  A
O1466      C1468   1.268       .  A
C1467      O1469   1.269       .  A
C1467      C1549   1.445       .  S
C1468      C1540   1.444       .  S
C1470      C1555   1.443       .  S
C1471      C1525   1.450       .  S
C1471      C1472   1.409       .  A
C1471      C2012   1.409       .  A
C1472      C1521   1.449       .  S
C1472      C1473   1.409   1_655  A
C1473      C1533   1.448       .  S
C1474      C1529   1.452       .  S
C1474      C2011   1.410       .  A
C1475      C1517   1.448       .  S
C1475      C2010   1.410       .  A
C1476      C1513   1.447       .  S
C1476      C2007   1.409   1_545  A
C1477      C1546   1.445       .  S
C1477      N2014   1.364   1_545  A
C1477      N1482   1.357       .  A
N1478      C2013   1.362       .  A
N1478      C1479   1.363       .  A
C1479      C1602   1.445       .  S
C1479      N1480   1.358       .  A
N1480      C1481   1.357       .  A
C1481      C1532   1.436       .  S
C1481      N2018   1.355       .  A
N1482      C2017   1.355       .  A
C1483      C1586   1.446       .  S
C1483      N1484   1.356       .  A
C1483      N2024   1.363   1_545  A
N1484      C2021   1.355   1_545  A
C1485      C1528   1.434       .  S
C1485      N2020   1.354       .  A
C1485      N1486   1.355       .  A
N1486      C1487   1.358       .  A
C1487      C1541   1.447       .  S
C1487      N1488   1.365       .  A
N1488      C2019   1.364       .  A
C1489      C1544   1.446       .  S
C1489      N1490   1.364       .  A
C1489      N1494   1.356       .  A
C1491      C1598   1.444       .  S
C1491      N1492   1.355       .  A
C1493      C1516   1.431       .  S
C1493      N1494   1.355       .  A
C1495      C1589   1.447       .  S
C1495      N1496   1.364       .  A
C1495      N1500   1.356       .  A
N1496      C1497   1.363       .  A
C1497      C1538   1.446       .  S
C1497      N1498   1.357       .  A
N1498      C1499   1.355       .  A
C1499      C1520   1.433       .  S
C1499      N1500   1.355       .  A
C1501      C1539   1.445       .  S
C1501      N1502   1.355       .  A
C1503      C1536   1.432       .  S
C1503      N1504   1.355   1_455  A
N1504      C1505   1.355       .  A
C1505      C1592   1.448       .  S
C1505      N1506   1.364   1_655  A
C1507      C1603   1.446       .  S
C1507      N1508   1.363       .  A
C1507      N1512   1.356       .  A
N1508      C1509   1.364       .  A
C1509      C1547   1.446       .  S
C1509      N1510   1.357       .  A
N1510      C1511   1.355       .  A
C1511      C1524   1.433       .  S
C1511      N1512   1.355       .  A
C1513      C1514   1.203       .  T
C1514      C1515   1.407       .  S
C1515      C1516   1.203       .  T
C1517      C1518   1.204       .  T
C1518      C1519   1.409       .  S
C1519      C1520   1.203       .  T
C1521      C1522   1.204       .  T
C1522      C1523   1.409       .  S
C1523      C1524   1.203       .  T
C1525      C1526   1.205       .  T
C1526      C1527   1.410       .  S
C1527      C1528   1.204       .  T
C1529      C1530   1.206       .  T
C1530      C1531   1.412       .  S
C1531      C1532   1.205       .  T
C1533      C1534   1.204       .  T
C1534      C1535   1.408       .  S
C1535      C1536   1.203       .  T
C1537      C1538   1.212       .  T
C1539      C1540   1.212       .  T
C1541      C1542   1.213       .  T
C1543      C1544   1.212       .  T
C1545      C1546   1.212       .  T
C1547      C1548   1.212       .  T
C1549      C1550   1.211       .  T
C1551      C1552   1.211       .  T
C1553      C1554   1.212       .  T
C1555      C1556   1.211       .  T
C1557      C1558   1.212       .  T
C1559      C1560   1.210       .  T
C1561      C1562   1.204       .  T
C1562      C1563   1.408       .  S
C1563      C1564   1.203       .  T
C1565      C1566   1.204       .  T
C1566      C1567   1.409       .  S
C1567      C1568   1.204       .  T
C1569      C1570   1.203       .  T
C1570      C1571   1.406       .  S
C1571      C1572   1.202       .  T
C1573      C1574   1.206       .  T
C1574      C1575   1.412       .  S
C1575      C1576   1.206       .  T
C1577      C1578   1.202       .  T
C1578      C1579   1.406       .  S
C1579      C1580   1.202       .  T
C1581      C1582   1.204       .  T
C1582      C1583   1.408       .  S
C1583      C1584   1.204       .  T
C1585      C1586   1.212       .  T
C1587      C1588   1.211       .  T
C1589      C1590   1.213       .  T
C1591      C1592   1.213       .  T
C1593      C1594   1.211       .  T
C1595      C1596   1.212       .  T
C1597      C1598   1.211       .  T
C1599      C1600   1.211       .  T
C1601      C1602   1.211       .  T
C1603      C1604   1.213       .  T
C1605      C1606   1.211       .  T
C1607      C1608   1.212       .  T
Fe1609     O1625   2.077       .  S
Fe1609     O1615   2.077       .  S
Fe1609     O1890   2.079   1_554  S
Fe1609     O1882   2.074   1_554  S
Fe1609     O1888   1.979       .  S
Fe1610     O1881   2.075       .  S
Fe1610     O1885   2.074       .  S
Fe1610     O1621   2.071       .  S
Fe1610     O1626   2.076       .  S
Fe1610     O1620   1.982       .  S
Fe1611     O1897   2.073       .  S
Fe1611     O1616   2.075       .  S
Fe1611     O1891   2.077       .  S
Fe1611     O1612   2.078       .  S
Fe1611     O1620   1.982       .  S
O1612      C1619   1.270       .  A
O1613     Fe1878   2.078       .  S
O1613      C1627   1.270       .  A
O1614     Fe1877   2.075       .  S
O1614      C1619   1.270       .  A
O1615      C1618   1.270       .  A
O1616      C1628   1.270       .  A
O1617     Fe1878   2.080       .  S
O1617      C1630   1.271       .  A
C1618      O1623   1.269       .  A
C1618      C1876   1.444       .  S
C1619      C1872   1.446       .  S
O1620     Fe1877   1.983       .  S
O1621      C1624   1.269       .  A
O1622     Fe1877   2.076       .  S
O1622      C1624   1.270       .  A
O1623     Fe1879   2.074       .  S
C1624      C1869   1.442       .  S
O1625      C1630   1.271       .  A
O1626      C1628   1.270       .  A
C1627      O1629   1.270       .  A
C1627      C1867   1.446       .  S
C1628      C1865   1.444       .  S
O1629     Fe1879   2.076       .  S
C1630      C1874   1.446       .  S
Fe1631     O1915   2.076   1_554  S
Fe1631     O1905   2.077   1_554  S
Fe1631     O1644   2.074       .  S
Fe1631     O1636   2.079       .  S
Fe1631     O1642   1.979       .  S
Fe1632     O1903   2.069   1_554  S
Fe1632     O1907   2.080   1_554  S
Fe1632     O1643   2.074       .  S
Fe1632     O1648   2.076       .  S
Fe1632     O1642   1.979       .  S
Fe1633     O1919   2.083   1_554  S
Fe1633     O1638   2.079       .  S
Fe1633     O1913   2.076   1_554  S
Fe1633     O1634   2.079       .  S
Fe1633     O1642   1.979       .  S
O1634      C1641   1.271       .  A
O1635     Fe1900   2.074       .  S
O1635      C1649   1.270       .  A
O1636      C1641   1.271       .  A
O1637     Fe1899   2.077       .  S
O1637      C1640   1.270       .  A
O1638      C1650   1.270       .  A
O1639     Fe1900   2.078       .  S
O1639      C1652   1.270       .  A
C1640      O1645   1.270       .  A
C1640      C1859   1.445       .  S
C1641      C1864   1.446       .  S
O1643      C1646   1.269       .  A
O1644      C1646   1.269       .  A
O1645     Fe1901   2.075       .  S
C1646      C1856   1.443       .  S
O1647     Fe1899   2.078       .  S
O1647      C1652   1.271       .  A
O1648      C1650   1.270       .  A
C1649      O1651   1.271       .  A
C1649      C1858   1.445       .  S
C1650      C1861   1.446       .  S
O1651     Fe1901   2.079       .  S
C1652      C1853   1.448       .  S
C1653      C1852   1.448       .  S
C1654      C1836   1.449       .  S
C1654      C1655   1.408       .  A
C1655      C1829   1.448       .  S
C1655      C1656   1.408       .  A
C1656      C1837   1.448       .  S
C1657      C1841   1.447       .  S
C1658      C1848   1.447       .  S
C1659      C1828   1.446       .  S
C1659      N1660   1.356       .  A
C1661      C1849   1.431       .  S
C1661      N1662   1.355       .  A
N1662      C1663   1.355       .  A
C1663      C1855   1.444       .  S
C1663      N1664   1.361       .  A
C1665      C1873   1.447       .  S
C1665      N1670   1.356       .  A
N1666      C1667   1.363       .  A
C1667      C1825   1.444       .  S
C1667      N1668   1.356       .  A
N1668      C1669   1.354       .  A
C1669      C1840   1.432       .  S
C1671      C1862   1.446       .  S
C1671      N1672   1.357       .  A
C1671      N1676   1.364       .  A
N1672      C1673   1.355       .  A
C1673      C1832   1.432       .  S
C1673      N1674   1.354       .  A
N1674      C1675   1.356       .  A
C1675      C1824   1.446       .  S
C1675      N1676   1.363       .  A
C1677      C1821   1.448       .  S
C1677      N1682   1.357       .  A
N1678      C1679   1.365       .  A
C1679      C1868   1.447       .  S
C1679      N1680   1.356       .  A
N1680      C1681   1.355       .  A
C1681      C1833   1.432       .  S
C1683      C1875   1.444       .  S
C1683      N1684   1.362       .  A
C1683      N1688   1.355       .  A
N1684      C1685   1.363       .  A
C1685      C1819   1.444       .  S
C1685      N1686   1.356       .  A
N1686      C1687   1.355       .  A
C1687      C1845   1.431       .  S
C1687      N1688   1.354       .  A
C1689      C1818   1.445       .  S
C1689      N1690   1.363       .  A
C1689      N1694   1.356       .  A
C1691      C1863   1.446       .  S
C1691      N1692   1.355       .  A
C1693      C1844   1.430       .  S
C1693      N1694   1.356       .  A
Fe1695     O1711   2.075       .  S
Fe1695     O1701   2.074       .  S
Fe1695     O1708   2.077       .  S
Fe1695     O1700   2.072       .  S
Fe1695     O1706   1.984       .  S
Fe1696     O1699   2.076       .  S
Fe1696     O1703   2.075       .  S
Fe1696     O1707   2.072       .  S
Fe1696     O1712   2.080       .  S
Fe1696     O1706   1.984       .  S
Fe1697     O1715   2.074       .  S
Fe1697     O1702   2.074       .  S
Fe1697     O1709   2.080       .  S
Fe1697     O1698   2.077       .  S
Fe1697     O1706   1.984       .  S
O1698      C1705   1.269       .  A
O1699      C1713   1.270       .  A
O1700      C1705   1.270       .  A
O1701      C1704   1.269       .  A
O1702      C1714   1.270       .  A
O1703      C1716   1.270       .  A
C1704      O1709   1.270       .  A
C1704      C1822   1.447       .  S
C1705      C1811   1.443       .  S
O1707      C1710   1.270       .  A
O1708      C1710   1.269       .  A
C1710      C1813   1.443       .  S
O1711      C1716   1.270       .  A
O1712      C1714   1.269       .  A
C1713      O1715   1.270       .  A
C1713      C1820   1.443       .  S
C1714      C1816   1.447       .  S
C1716      C1826   1.444       .  S
Fe1717     O1733   2.076       .  S
Fe1717     O1723   2.075       .  S
Fe1717     O1730   2.078       .  S
Fe1717     O1722   2.073       .  S
Fe1717     O1728   1.986       .  S
Fe1718     O1721   2.077       .  S
Fe1718     O1725   2.077       .  S
Fe1718     O1729   2.074       .  S
Fe1718     O1734   2.080       .  S
Fe1718     O1728   1.986       .  S
Fe1719     O1737   2.073       .  S
Fe1719     O1724   2.073       .  S
Fe1719     O1731   2.078       .  S
Fe1719     O1720   2.076       .  S
Fe1719     O1728   1.986       .  S
O1720      C1727   1.269       .  A
O1721      C1735   1.270       .  A
O1722      C1727   1.270       .  A
O1723      C1726   1.270       .  A
O1724      C1736   1.270       .  A
O1725      C1738   1.270       .  A
C1726      O1731   1.270       .  A
C1726      C1827   1.446       .  S
C1727      C1810   1.444       .  S
O1729      C1732   1.270       .  A
O1730      C1732   1.269       .  A
C1732      C1805   1.445       .  S
O1733      C1738   1.269       .  A
O1734      C1736   1.270       .  A
C1735      O1737   1.269       .  A
C1735      C1817   1.444       .  S
C1736      C1808   1.446       .  S
C1738      C1823   1.446       .  S
C1739      C1793   1.447       .  S
C1739      C1740   1.409       .  A
C1740      C1789   1.449       .  S
C1740      C1741   1.409   1_655  A
C1741      C1801   1.449       .  S
C1742      C1797   1.452       .  S
C1743      C1785   1.447       .  S
C1744      C1781   1.447       .  S
C1745      C1814   1.443       .  S
C1745      N1750   1.355       .  A
N1746      C1747   1.362   1_545  A
C1747      C1870   1.444       .  S
C1747      N1748   1.356       .  A
N1748      C1749   1.356   1_565  A
C1749      C1800   1.436       .  S
C1751      C1854   1.448       .  S
C1751      N1752   1.355       .  A
C1753      C1796   1.431       .  S
C1753      N1754   1.354       .  A
N1754      C1755   1.356       .  A
C1755      C1809   1.444       .  S
C1755      N1756   1.365       .  A
C1757      C1812   1.444       .  S
C1757      N1758   1.363       .  A
C1757      N1762   1.356       .  A
C1759      C1866   1.444       .  S
C1759      N1760   1.355       .  A
C1761      C1784   1.430       .  S
C1761      N1762   1.355       .  A
C1763      C1857   1.446       .  S
C1763      N1764   1.364       .  A
C1763      N1768   1.356       .  A
N1764      C1765   1.363       .  A
C1765      C1806   1.446       .  S
C1765      N1766   1.356       .  A
N1766      C1767   1.355       .  A
C1767      C1788   1.431       .  S
C1767      N1768   1.354       .  A
C1769      C1807   1.446       .  S
C1769      N1770   1.356       .  A
C1771      C1804   1.432       .  S
C1771      N1772   1.354   1_455  A
N1772      C1773   1.355       .  A
C1773      C1860   1.446       .  S
C1773      N1774   1.363   1_655  A
C1775      C1871   1.447       .  S
C1775      N1776   1.363       .  A
C1775      N1780   1.356       .  A
N1776      C1777   1.364       .  A
C1777      C1815   1.447       .  S
C1777      N1778   1.357       .  A
N1778      C1779   1.355       .  A
C1779      C1792   1.433       .  S
C1779      N1780   1.354       .  A
C1781      C1782   1.203       .  T
C1782      C1783   1.406       .  S
C1783      C1784   1.203       .  T
C1785      C1786   1.203       .  T
C1786      C1787   1.407       .  S
C1787      C1788   1.202       .  T
C1789      C1790   1.204       .  T
C1790      C1791   1.409       .  S
C1791      C1792   1.203       .  T
C1793      C1794   1.203       .  T
C1794      C1795   1.407       .  S
C1795      C1796   1.203       .  T
C1797      C1798   1.206       .  T
C1798      C1799   1.412       .  S
C1799      C1800   1.206       .  T
C1801      C1802   1.204       .  T
C1802      C1803   1.408       .  S
C1803      C1804   1.204       .  T
C1805      C1806   1.212       .  T
C1807      C1808   1.212       .  T
C1809      C1810   1.211       .  T
C1811      C1812   1.210       .  T
C1813      C1814   1.211       .  T
C1815      C1816   1.213       .  T
C1817      C1818   1.211       .  T
C1819      C1820   1.211       .  T
C1821      C1822   1.213       .  T
C1823      C1824   1.212       .  T
C1825      C1826   1.212       .  T
C1827      C1828   1.213       .  T
C1829      C1830   1.203       .  T
C1830      C1831   1.408       .  S
C1831      C1832   1.203       .  T
C1833      C1834   1.204       .  T
C1834      C1835   1.408       .  S
C1835      C1836   1.204       .  T
C1837      C1838   1.203       .  T
C1838      C1839   1.408       .  S
C1839      C1840   1.203       .  T
C1841      C1842   1.203       .  T
C1842      C1843   1.407       .  S
C1843      C1844   1.203       .  T
C1845      C1846   1.202       .  T
C1846      C1847   1.407       .  S
C1847      C1848   1.202       .  T
C1849      C1850   1.203       .  T
C1850      C1851   1.408       .  S
C1851      C1852   1.204       .  T
C1853      C1854   1.213       .  T
C1855      C1856   1.210       .  T
C1857      C1858   1.213       .  T
C1859      C1860   1.212       .  T
C1861      C1862   1.213       .  T
C1863      C1864   1.213       .  T
C1865      C1866   1.211       .  T
C1867      C1868   1.213       .  T
C1869      C1870   1.211       .  T
C1871      C1872   1.213       .  T
C1873      C1874   1.212       .  T
C1875      C1876   1.211       .  T
Fe1877     O1893   2.078       .  S
Fe1877     O1883   2.072       .  S
Fe1878     O1889   2.074   1_554  S
Fe1878     O1894   2.082   1_554  S
Fe1878     O1888   1.978       .  S
Fe1879     O1884   2.069   1_554  S
Fe1879     O1880   2.077   1_554  S
Fe1879     O1888   1.979       .  S
O1880      C1887   1.269       .  A
O1881      C1895   1.268       .  A
O1882      C1887   1.271       .  A
O1883      C1886   1.270       .  A
O1884      C1896   1.270       .  A
O1885      C1898   1.270       .  A
C1886      O1891   1.269       .  A
C1886      C2144   1.442       .  S
C1887      C2140   1.443       .  S
O1889      C1892   1.270       .  A
O1890      C1892   1.269       .  A
C1892      C2137   1.445       .  S
O1893      C1898   1.269       .  A
O1894      C1896   1.271       .  A
C1895      O1897   1.270       .  A
C1895      C2135   1.443       .  S
C1896      C2133   1.444       .  S
C1898      C2142   1.445       .  S
Fe1899     O1912   2.070       .  S
Fe1899     O1904   2.078       .  S
Fe1899     O1910   1.985       .  S
Fe1900     O1911   2.075       .  S
Fe1900     O1916   2.072       .  S
Fe1900     O1910   1.984       .  S
Fe1901     O1906   2.078       .  S
Fe1901     O1902   2.075       .  S
Fe1901     O1910   1.984       .  S
O1902      C1909   1.271       .  A
O1903      C1917   1.270       .  A
O1904      C1909   1.270       .  A
O1905      C1908   1.269       .  A
O1906      C1918   1.269       .  A
O1907      C1920   1.270       .  A
C1908      O1913   1.271       .  A
C1908      C2127   1.446       .  S
C1909      C2132   1.445       .  S
O1911      C1914   1.269       .  A
O1912      C1914   1.269       .  A
C1914      C2124   1.442       .  S
O1915      C1920   1.271       .  A
O1916      C1918   1.270       .  A
C1917      O1919   1.271       .  A
C1917      C2126   1.444       .  S
C1918      C2129   1.445       .  S
C1920      C2121   1.446       .  S
C1921      C2120   1.447       .  S
C1922      C2104   1.451       .  S
C1922      C1923   1.411       .  A
C1923      C2097   1.452       .  S
C1923      C1924   1.411       .  A
C1924      C2105   1.451       .  S
C1925      C2109   1.450       .  S
C1926      C2116   1.447       .  S
C1927      C2096   1.444       .  S
C1927      N1928   1.356       .  A
C1929      C2117   1.430       .  S
C1929      N1930   1.354       .  A
N1930      C1931   1.355       .  A
C1931      C2123   1.443       .  S
C1931      N1932   1.363       .  A
C1933      C2141   1.445       .  S
C1933      N1938   1.354       .  A
N1934      C1935   1.364       .  A
C1935      C2093   1.444       .  S
C1935      N1936   1.358       .  A
N1936      C1937   1.355       .  A
C1937      C2108   1.435       .  S
C1939      C2130   1.446       .  S
C1939      N1940   1.356       .  A
C1939      N1944   1.363       .  A
N1940      C1941   1.355       .  A
C1941      C2100   1.436       .  S
C1941      N1942   1.357       .  A
N1942      C1943   1.359       .  A
C1943      C2092   1.447       .  S
C1943      N1944   1.364       .  A
C1945      C2089   1.446       .  S
C1945      N1950   1.356       .  A
N1946      C1947   1.363       .  A
C1947      C2136   1.444       .  S
C1947      N1948   1.355       .  A
N1948      C1949   1.354       .  A
C1949      C2101   1.434       .  S
C1951      C2143   1.442       .  S
C1951      N1952   1.363       .  A
C1951      N1956   1.356       .  A
N1952      C1953   1.363       .  A
C1953      C2087   1.442       .  S
C1953      N1954   1.356       .  A
N1954      C1955   1.354       .  A
C1955      C2113   1.430       .  S
C1955      N1956   1.354       .  A
C1957      C2086   1.444       .  S
C1957      N1958   1.363       .  A
C1957      N1962   1.357       .  A
C1959      C2131   1.445       .  S
C1959      N1960   1.354       .  A
C1961      C2112   1.433       .  S
C1961      N1962   1.356       .  A
Fe1963     O1979   2.078       .  S
Fe1963     O1969   2.072       .  S
Fe1963     O1976   2.075       .  S
Fe1963     O1968   2.076       .  S
Fe1963     O1974   1.985       .  S
Fe1964     O1967   2.074       .  S
Fe1964     O1971   2.073       .  S
Fe1964     O1975   2.073       .  S
Fe1964     O1980   2.078       .  S
Fe1964     O1974   1.987       .  S
Fe1965     O1983   2.071       .  S
Fe1965     O1970   2.072       .  S
Fe1965     O1977   2.077       .  S
Fe1965     O1966   2.076       .  S
Fe1965     O1974   1.985       .  S
O1966      C1973   1.270       .  A
O1967      C1981   1.269       .  A
O1968      C1973   1.271       .  A
O1969      C1972   1.268       .  A
O1970      C1982   1.269       .  A
O1971      C1984   1.270       .  A
C1972      O1977   1.268       .  A
C1972      C2090   1.445       .  S
C1973      C2079   1.444       .  S
O1975      C1978   1.269       .  A
O1976      C1978   1.269       .  A
C1978      C2081   1.444       .  S
O1979      C1984   1.270       .  A
O1980      C1982   1.270       .  A
C1981      O1983   1.270       .  A
C1981      C2088   1.442       .  S
C1982      C2084   1.445       .  S
C1984      C2094   1.444       .  S
Fe1985     O2001   2.081       .  S
Fe1985     O1991   2.072       .  S
Fe1985     O1998   2.076       .  S
Fe1985     O1990   2.077       .  S
Fe1985     O1996   1.987       .  S
Fe1986     O1989   2.077       .  S
Fe1986     O1993   2.074       .  S
Fe1986     O1997   2.073       .  S
Fe1986     O2002   2.077       .  S
Fe1986     O1996   1.988       .  S
Fe1987     O2005   2.070       .  S
Fe1987     O1992   2.071       .  S
Fe1987     O1999   2.075       .  S
Fe1987     O1988   2.073       .  S
Fe1987     O1996   1.988       .  S
O1988      C1995   1.269       .  A
O1989      C2003   1.269       .  A
O1990      C1995   1.271       .  A
O1991      C1994   1.269       .  A
O1992      C2004   1.269       .  A
O1993      C2006   1.270       .  A
C1994      O1999   1.269       .  A
C1994      C2095   1.443       .  S
C1995      C2078   1.444       .  S
O1997      C2000   1.269       .  A
O1998      C2000   1.269       .  A
C2000      C2073   1.444       .  S
O2001      C2006   1.270       .  A
O2002      C2004   1.269       .  A
C2003      O2005   1.269       .  A
C2003      C2085   1.443       .  S
C2004      C2076   1.444       .  S
C2006      C2091   1.446       .  S
C2007      C2061   1.448       .  S
C2007      C2008   1.409       .  A
C2008      C2057   1.450       .  S
C2008      C2009   1.409   1_655  A
C2009      C2069   1.446       .  S
C2010      C2065   1.448       .  S
C2011      C2053   1.450       .  S
C2012      C2049   1.449       .  S
C2013      C2082   1.444       .  S
C2013      N2018   1.356       .  A
N2014      C2015   1.363       .  A
C2015      C2138   1.446       .  S
C2015      N2016   1.355       .  A
N2016      C2017   1.355   1_565  A
C2017      C2068   1.432       .  S
C2019      C2122   1.446       .  S
C2019      N2020   1.355       .  A
C2021      C2064   1.432       .  S
C2021      N2022   1.354       .  A
N2022      C2023   1.356       .  A
C2023      C2077   1.444       .  S
C2023      N2024   1.364       .  A
C2025      C2080   1.445       .  S
C2025      N2026   1.363       .  A
C2025      N2030   1.357       .  A
C2027      C2134   1.444       .  S
C2027      N2028   1.357       .  A
C2029      C2052   1.433       .  S
C2029      N2030   1.356       .  A
C2031      C2125   1.444       .  S
C2031      N2032   1.364       .  A
C2031      N2036   1.357       .  A
N2032      C2033   1.363       .  A
C2033      C2074   1.445       .  S
C2033      N2034   1.357       .  A
N2034      C2035   1.355       .  A
C2035      C2056   1.435       .  S
C2035      N2036   1.355       .  A
C2037      C2075   1.444       .  S
C2037      N2038   1.357       .  A
C2039      C2072   1.430       .  S
C2039      N2040   1.354   1_455  A
N2040      C2041   1.355       .  A
C2041      C2128   1.446       .  S
C2041      N2042   1.365   1_655  A
C2043      C2139   1.443       .  S
C2043      N2044   1.363       .  A
C2043      N2048   1.355       .  A
N2044      C2045   1.364       .  A
C2045      C2083   1.445       .  S
C2045      N2046   1.358       .  A
N2046      C2047   1.356       .  A
C2047      C2060   1.434       .  S
C2047      N2048   1.354       .  A
C2049      C2050   1.204       .  T
C2050      C2051   1.409       .  S
C2051      C2052   1.204       .  T
C2053      C2054   1.205       .  T
C2054      C2055   1.411       .  S
C2055      C2056   1.205       .  T
C2057      C2058   1.205       .  T
C2058      C2059   1.410       .  S
C2059      C2060   1.204       .  T
C2061      C2062   1.204       .  T
C2062      C2063   1.408       .  S
C2063      C2064   1.203       .  T
C2065      C2066   1.204       .  T
C2066      C2067   1.409       .  S
C2067      C2068   1.204       .  T
C2069      C2070   1.202       .  T
C2070      C2071   1.406       .  S
C2071      C2072   1.202       .  T
C2073      C2074   1.212       .  T
C2075      C2076   1.211       .  T
C2077      C2078   1.212       .  T
C2079      C2080   1.211       .  T
C2081      C2082   1.211       .  T
C2083      C2084   1.212       .  T
C2085      C2086   1.210       .  T
C2087      C2088   1.210       .  T
C2089      C2090   1.212       .  T
C2091      C2092   1.213       .  T
C2093      C2094   1.211       .  T
C2095      C2096   1.211       .  T
C2097      C2098   1.206       .  T
C2098      C2099   1.412       .  S
C2099      C2100   1.205       .  T
C2101      C2102   1.205       .  T
C2102      C2103   1.411       .  S
C2103      C2104   1.205       .  T
C2105      C2106   1.205       .  T
C2106      C2107   1.411       .  S
C2107      C2108   1.205       .  T
C2109      C2110   1.205       .  T
C2110      C2111   1.410       .  S
C2111      C2112   1.205       .  T
C2113      C2114   1.202       .  T
C2114      C2115   1.406       .  S
C2115      C2116   1.202       .  T
C2117      C2118   1.203       .  T
C2118      C2119   1.407       .  S
C2119      C2120   1.203       .  T
C2121      C2122   1.212       .  T
C2123      C2124   1.210       .  T
C2125      C2126   1.211       .  T
C2127      C2128   1.212       .  T
C2129      C2130   1.212       .  T
C2131      C2132   1.212       .  T
C2133      C2134   1.211       .  T
C2135      C2136   1.211       .  T
C2137      C2138   1.212       .  T
C2139      C2140   1.211       .  T
C2141      C2142   1.211       .  T
C2143      C2144   1.210       .  T
