geometry optimzed in LAMMPS
_audit_creation_date              2020-11-30 
_audit_creation_method            'lammps2cif' 
_symmetry_space_group_name_H-M    'P1' 
_symmetry_Int_Tables_number       1 
_symmetry_cell_setting            triclinic 
loop_ 
_symmetry_equiv_pos_as_xyz 
  x,y,z 
_cell_length_a                    45.31870412 
_cell_length_b                    45.2536024812177 
_cell_length_c                    45.15176256099825 
_cell_angle_alpha                 89.70223127557858 
_cell_angle_beta                  90.14392212751149 
_cell_angle_gamma                 89.64941798295092 
loop_ 
_atom_site_label 
_atom_site_type_symbol 
_atom_site_fract_x 
_atom_site_fract_y 
_atom_site_fract_z 
_atom_site_charge 
Zn1        Zn  0.52238555  0.47310553  0.02110055     1.49700
Zn2        Zn  0.52140512  0.52377102  0.97161210     1.49400
Zn3        Zn  0.47122706  0.47382972  0.97098535     1.49100
Zn4        Zn  0.47149040  0.52296400  0.02213962     1.49500
O5          O  0.49651304  0.49837074  0.99644263    -1.83800
O6          O  0.56572849  0.47948224  0.01173397    -0.74400
O7          O  0.51367426  0.51662330  0.92810667    -0.74200
O8          O  0.47853964  0.43010642  0.97954106    -0.73700
O9          O  0.56492760  0.51581070  0.97870891    -0.74400
O10         O  0.51314294  0.43002660  0.01438396    -0.74000
O11         O  0.47957880  0.48174347  0.92703459    -0.74600
O12         O  0.42765506  0.51476243  0.01554536    -0.74000
O13         O  0.51369148  0.56698802  0.98004642    -0.74700
O14         O  0.42770217  0.48206230  0.97915667    -0.74100
O15         O  0.47866888  0.56659523  0.01428833    -0.74600
O16         O  0.48146458  0.51529021  0.06534808    -0.74500
O17         O  0.51711152  0.48163723  0.06484079    -0.74300
C18         C  0.57926784  0.49758191  0.99491341     0.77500
C19         C  0.49705527  0.49931252  0.91355533     0.78000
C20         C  0.49568647  0.41614463  0.99729149     0.76900
C21         C  0.41369802  0.49817488  0.99756974     0.77300
C22         C  0.49612767  0.58068990  0.99728208     0.78500
C23         C  0.50000077  0.49889846  0.07908691     0.77500
Zn24       Zn  0.47517698  0.02337461  0.52479099     1.49700
Zn25       Zn  0.52381354  0.97259481  0.52641283     1.49400
Zn26       Zn  0.47483539  0.97332027  0.47467226     1.49100
Zn27       Zn  0.52608806  0.02194906  0.47578560     1.49500
O28         O  0.49991144  0.99775534  0.50028323    -1.83800
O29         O  0.48103626  0.01516149  0.56846745    -0.74400
O30         O  0.51750555  0.92982345  0.51689780    -0.74200
O31         O  0.43129709  0.98202091  0.48199380    -0.73700
O32         O  0.51393426  0.97884632  0.56958271    -0.74400
O33         O  0.43225924  0.01739609  0.51567990    -0.74000
O34         O  0.48324694  0.92959281  0.48169758    -0.74600
O35         O  0.51917926  0.01443677  0.43225081    -0.74000
O36         O  0.56719133  0.98053451  0.52143899    -0.74700
O37         O  0.48293611  0.98184794  0.43133031    -0.74100
O38         O  0.56909091  0.01371121  0.48529305    -0.74600
O39         O  0.51852379  0.06531772  0.48263782    -0.74500
O40         O  0.48379650  0.06629852  0.51706039    -0.74300
C41         C  0.49688577  0.99680391  0.58299808     0.77500
C42         C  0.50092517  0.91585318  0.49907820     0.78000
C43         C  0.41786795  0.00042274  0.49863945     0.76900
C44         C  0.50126963  0.99836371  0.41781462     0.77300
C45         C  0.58203044  0.99693746  0.50410696     0.78500
C46         C  0.50122806  0.07968970  0.49952186     0.77500
Zn47       Zn  0.98143587  0.52875407  0.52056332     1.49700
Zn48       Zn  0.03205827  0.52786601  0.47055155     1.49400
Zn49       Zn  0.03110787  0.47818298  0.52134907     1.49100
Zn50       Zn  0.98118907  0.47883994  0.47064078     1.49500
O51         O  0.00647246  0.50344650  0.49576437    -1.83800
O52         O  0.99055033  0.57181103  0.51323204    -0.74400
O53         O  0.07541592  0.51880074  0.47836225    -0.74200
O54         O  0.02227835  0.48517568  0.56479921    -0.73700
O55         O  0.02570884  0.57126840  0.47919414    -0.74400
O56         O  0.98813217  0.52047210  0.56429551    -0.74000
O57         O  0.07470238  0.48565139  0.51458626    -0.74600
O58         O  0.98913896  0.43533467  0.47791544    -0.74000
O59         O  0.02312936  0.52150295  0.42685945    -0.74700
O60         O  0.02334939  0.43509630  0.51301140    -0.74100
O61         O  0.98811405  0.48757741  0.42729386    -0.74600
O62         O  0.93783068  0.48652147  0.47856657    -0.74500
O63         O  0.93801038  0.52201702  0.51208805    -0.74300
C64         C  0.00868743  0.58543136  0.49656331     0.77500
C65         C  0.08904041  0.50205722  0.49674985     0.78000
C66         C  0.00486497  0.50260326  0.57849049     0.76900
C67         C  0.00630341  0.42125750  0.49549526     0.77300
C68         C  0.00500806  0.50497985  0.41309611     0.78500
C69         C  0.92395218  0.50444564  0.49528103     0.77500
Zn70       Zn  0.96716839  0.98003703  0.97853741     1.49700
Zn71       Zn  0.96809172  0.02881077  0.02984762     1.49400
Zn72       Zn  0.01695397  0.97694672  0.02856609     1.49100
Zn73       Zn  0.01814527  0.02898098  0.97978948     1.49500
O74         O  0.99260432  0.00375180  0.00421096    -1.83800
O75         O  0.92419219  0.98947847  0.98553946    -0.74400
O76         O  0.97611453  0.01970392  0.07320502    -0.74200
O77         O  0.00754439  0.93390546  0.02047445    -0.73700
O78         O  0.92451881  0.02237834  0.02171875    -0.74400
O79         O  0.97303090  0.93613323  0.98570305    -0.74000
O80         O  0.01009620  0.98431222  0.07209005    -0.74600
O81         O  0.06109441  0.01985427  0.98784558    -0.74000
O82         O  0.97648251  0.07228496  0.02277022    -0.74700
O83         O  0.06043580  0.98308087  0.02050841    -0.74100
O84         O  0.01085893  0.07256515  0.98793747    -0.74600
O85         O  0.01145158  0.02161113  0.93607611    -0.74500
O86         O  0.97606795  0.98790761  0.93549866    -0.74300
C87         C  0.91045152  0.00631921  0.00343646     0.77500
C88         C  0.99333237  0.00163068  0.08661453     0.78000
C89         C  0.98980179  0.92108755  0.00280375     0.76900
C90         C  0.07461546  0.00102602  0.00410047     0.77300
C91         C  0.99367112  0.08637280  0.00550129     0.78500
C92         C  0.99407644  0.00467746  0.92193889     0.77500
C93         C  0.75329308  0.51447343  0.97785781     0.80600
N94         N  0.72337251  0.51297435  0.97661517    -0.77700
C95         C  0.70835189  0.49507650  0.99555842     0.83000
N96         N  0.72383747  0.47864428  0.01571770    -0.77700
C97         C  0.75387452  0.47980801  0.01697466     0.83100
N98         N  0.76827157  0.49812318  0.99818120    -0.79400
C99         C  0.23830487  0.51744276  0.01729202     0.80600
N100        N  0.26832892  0.51770876  0.01716119    -0.77700
C101        C  0.28404563  0.49971558  0.99897000     0.83000
N102        N  0.26901676  0.48092936  0.98095907    -0.77700
C103        C  0.23893150  0.48059473  0.98077736     0.83100
N104        N  0.22375784  0.49908824  0.99877535    -0.79400
C105        C  0.98403129  0.48853893  0.23875609     0.80600
N106        N  0.98513070  0.48925823  0.26889893    -0.77700
C107        C  0.00363853  0.50780465  0.28342149     0.83000
N108        N  0.02125955  0.52576988  0.26718247    -0.77700
C109        C  0.02031500  0.52550699  0.23708613     0.83100
N110        N  0.00168667  0.50688087  0.22305369    -0.79400
C111        C  0.97621790  0.26116048  0.02131189     0.80600
N112        N  0.97712292  0.23107445  0.02198091    -0.77700
C113        C  0.99608252  0.21571339  0.00441763     0.83000
N114        N  0.01409899  0.23101487  0.98597150    -0.77700
C115        C  0.01385496  0.26105663  0.98532815     0.83100
N116        N  0.99482844  0.27599731  0.00304912    -0.79400
C117        C  0.97941823  0.51216703  0.75262279     0.80600
N118        N  0.99818816  0.49428484  0.76790612    -0.77700
C119        C  0.01756886  0.47651934  0.75359835     0.83000
N120        N  0.01807596  0.47674848  0.72341691    -0.77700
C121        C  0.99955977  0.49474477  0.70762768     0.83100
N122        N  0.98028601  0.51247679  0.72249999    -0.79400
Zn123      Zn  0.12380432  0.37092602  0.87421777     1.49700
Zn124      Zn  0.14404679  0.30310790  0.86090048     1.49400
Zn125      Zn  0.14261008  0.34967451  0.80882489     1.49100
Zn126      Zn  0.19109231  0.35399147  0.85828028     1.49500
O127        O  0.14997534  0.34466569  0.85093019    -1.83800
O128        O  0.09672699  0.34533727  0.90040378    -0.74400
O129        O  0.13098142  0.27949653  0.82555924    -0.74200
O130        O  0.11141345  0.37940299  0.80199592    -0.73700
O131        O  0.11218248  0.29965850  0.89053545    -0.74400
O132        O  0.09768298  0.39606970  0.84604324    -0.74000
O133        O  0.12928347  0.31245150  0.78933803    -0.74600
O134        O  0.21190949  0.36914820  0.82214033    -0.74000
O135        O  0.18092677  0.28331191  0.87687112    -0.74700
O136        O  0.17838844  0.36343228  0.78708406    -0.74100
O137        O  0.21387058  0.31877869  0.87221513    -0.74600
O138        O  0.19460920  0.38393749  0.88954468    -0.74500
O139        O  0.14890841  0.39824299  0.90068059    -0.74300
C140        C  0.09489541  0.31731887  0.90386234     0.77500
C141        C  0.12605110  0.28609945  0.79858539     0.78000
C142        C  0.09532354  0.39603614  0.81778581     0.76900
C143        C  0.20424085  0.37065704  0.79506244     0.77300
C144        C  0.20740733  0.29234287  0.87893823     0.78500
C145        C  0.17687804  0.39993383  0.90422740     0.77500
C146        C  0.97805839  0.74671915  0.97977991     0.80600
N147        N  0.97535139  0.77660554  0.98209434    -0.77700
C148        C  0.99350261  0.79207500  0.00038060     0.83000
N149        N  0.01452046  0.77719542  0.01617818    -0.77700
C150        C  0.01737472  0.74732690  0.01414671     0.83100
N151        N  0.99922104  0.73244154  0.99568592    -0.79400
Zn152      Zn  0.82823754  0.67188958  0.82402964     1.49700
Zn153      Zn  0.89335230  0.65286266  0.84159466     1.49400
Zn154      Zn  0.84066842  0.65537266  0.89004958     1.49100
Zn155      Zn  0.84068820  0.60543553  0.83894187     1.49500
O156        O  0.85114524  0.64607642  0.84899844    -1.83800
O157        O  0.85337232  0.69181165  0.79487555    -0.74400
O158        O  0.91287814  0.66919352  0.87842667    -0.74200
O159        O  0.80976887  0.68803551  0.89333829    -0.73700
O160        O  0.89970924  0.68328130  0.80869786    -0.74400
O161        O  0.80797730  0.70325133  0.84663999    -0.74000
O162        O  0.87622814  0.67191488  0.91116203    -0.74600
O163        O  0.82424657  0.58487212  0.87488933    -0.74000
O164        O  0.91290822  0.61511488  0.82696769    -0.74700
O165        O  0.82454042  0.61900046  0.91028986    -0.74100
O166        O  0.87556685  0.58371552  0.82213108    -0.74600
O167        O  0.80909786  0.60323838  0.80757128    -0.74500
O168        O  0.79772528  0.65061097  0.80125899    -0.74300
C169        C  0.88086985  0.69549682  0.79155396     0.77500
C170        C  0.90292305  0.67665909  0.90374407     0.78000
C171        C  0.80113269  0.70638005  0.87366460     0.76900
C172        C  0.81859634  0.59302025  0.90128398     0.77300
C173        C  0.90263619  0.59025386  0.81872357     0.78500
C174        C  0.79352445  0.62351865  0.79573410     0.77500
Zn175      Zn  0.85795854  0.35947044  0.19851354     1.49700
Zn176      Zn  0.85474469  0.31087828  0.15048714     1.49400
Zn177      Zn  0.80578303  0.36108709  0.15276719     1.49100
Zn178      Zn  0.87122283  0.37829275  0.13110296     1.49500
O179        O  0.84767347  0.35267312  0.15767261    -1.83800
O180        O  0.87212859  0.32354804  0.21993087    -0.74400
O181        O  0.81798673  0.29077733  0.13706374    -0.74200
O182        O  0.78676413  0.37550869  0.19007858    -0.73700
O183        O  0.86886191  0.28814456  0.18662762    -0.74400
O184        O  0.82386543  0.37388349  0.22190482    -0.74000
O185        O  0.78345133  0.32526683  0.14042001    -0.74600
O186        O  0.84347562  0.40404982  0.10491764    -0.74000
O187        O  0.88415250  0.30652186  0.11865896    -0.74700
O188        O  0.79939344  0.39119806  0.12158887    -0.74100
O189        O  0.89674701  0.35185630  0.10427052    -0.74600
O190        O  0.89797091  0.40556754  0.15602580    -0.74500
O191        O  0.88830821  0.38953096  0.20139651    -0.74300
C192        C  0.87438391  0.29651361  0.21289700     0.77500
C193        C  0.79115634  0.29887232  0.13478034     0.78000
C194        C  0.79685861  0.37866306  0.21615359     0.76900
C195        C  0.81530784  0.40649736  0.10434384     0.77300
C196        C  0.89891807  0.32373678  0.10210621     0.78500
C197        C  0.90185680  0.40680146  0.18408825     0.77500
Zn198      Zn  0.14694581  0.64969410  0.18922789     1.49700
Zn199      Zn  0.14828013  0.69840233  0.13936754     1.49400
Zn200      Zn  0.19412279  0.64555013  0.13914728     1.49100
Zn201      Zn  0.12679233  0.63307220  0.12204696     1.49500
O202        O  0.15360949  0.65647349  0.14721928    -1.83800
O203        O  0.13139749  0.68581560  0.20993525    -0.74400
O204        O  0.18626330  0.71758860  0.12775349    -0.74200
O205        O  0.21601313  0.63110073  0.17496524    -0.73700
O206        O  0.13289707  0.71997546  0.17486038    -0.74400
O207        O  0.18364276  0.63617274  0.21101433    -0.74000
O208        O  0.21716200  0.67963960  0.12422146    -0.74600
O209        O  0.15023687  0.60427028  0.09586869    -0.74000
O210        O  0.11949133  0.70493148  0.10684639    -0.74700
O211        O  0.19617382  0.61377278  0.10984576    -0.74100
O212        O  0.10228554  0.66069634  0.09519843    -0.74600
O213        O  0.10022997  0.60795216  0.14864745    -0.74500
O214        O  0.11735134  0.61835315  0.19362810    -0.74300
C215        C  0.12737325  0.71238352  0.20139836     0.77500
C216        C  0.21181556  0.70715058  0.12243984     0.78000
C217        C  0.20942115  0.62930995  0.20223750     0.76900
C218        C  0.17794925  0.59922121  0.09442574     0.77300
C219        C  0.10261228  0.68874945  0.09148759     0.78500
C220        C  0.10044709  0.60383466  0.17668189     0.77500
C221        C  0.51314107  0.24190944  0.01569273     0.80600
N222        N  0.51163805  0.27192225  0.01586443    -0.77700
C223        C  0.49355932  0.28692702  0.99689304     0.83000
N224        N  0.47693585  0.27133697  0.97738039    -0.77700
C225        C  0.47851747  0.24126962  0.97662246     0.83100
N226        N  0.49665594  0.22673292  0.99584765    -0.79400
C227        C  0.51884335  0.75508548  0.97954434     0.80600
N228        N  0.50102302  0.76972290  0.99867430    -0.77700
C229        C  0.48285069  0.75480609  0.01721957     0.83000
N230        N  0.48237450  0.72479982  0.01663201    -0.77700
C231        C  0.50043301  0.70960792  0.99803029     0.83100
N232        N  0.51836649  0.72497784  0.97945615    -0.79400
C233        C  0.48502002  0.97858274  0.24241346     0.80600
N234        N  0.50491114  0.99558713  0.22807488    -0.77700
C235        C  0.52299737  0.01375104  0.24337440     0.83000
N236        N  0.52091632  0.01463691  0.27342910    -0.77700
C237        C  0.50108347  0.99756469  0.28824241     0.83100
N238        N  0.48303323  0.97968771  0.27237809    -0.79400
C239        C  0.24890997  0.98154455  0.01719339     0.80600
N240        N  0.21888897  0.98181101  0.01772657    -0.77700
C241        C  0.20324298  0.99981968  0.99911960     0.83000
N242        N  0.21814161  0.01785479  0.98024642    -0.77700
C243        C  0.24808468  0.01752150  0.97949924     0.83100
N244        N  0.26329536  0.99935130  0.99793975    -0.79400
C245        C  0.73708480  0.98349176  0.98220263     0.80600
N246        N  0.76703453  0.98487310  0.98197299    -0.77700
C247        C  0.78167951  0.00466622  0.99894567     0.83000
N248        N  0.76582813  0.02314901  0.01648511    -0.77700
C249        C  0.73582822  0.02213375  0.01695922     0.83100
N250        N  0.72160787  0.00238245  0.99957785    -0.79400
Zn251      Zn  0.64618882  0.85411274  0.80743992     1.49700
Zn252      Zn  0.69599690  0.85860432  0.85529288     1.49400
Zn253      Zn  0.62739565  0.87115341  0.87334162     1.49100
Zn254      Zn  0.65153429  0.80597143  0.85786386     1.49500
O255        O  0.65504974  0.84777528  0.84892771    -1.83800
O256        O  0.68071902  0.86909355  0.78510135    -0.74400
O257        O  0.69749835  0.88915630  0.88608932    -0.74200
O258        O  0.60101537  0.89767757  0.84695242    -0.73700
O259        O  0.71614219  0.87348184  0.81836634    -0.74400
O260        O  0.61448493  0.88329571  0.80207455    -0.74000
O261        O  0.65141028  0.89773655  0.90105834    -0.74600
O262        O  0.61917879  0.79891726  0.88611879    -0.74000
O263        O  0.72060182  0.82428851  0.86968561    -0.74700
O264        O  0.60087988  0.84299290  0.89741845    -0.74100
O265        O  0.68865951  0.78775372  0.87425084    -0.74600
O266        O  0.64191736  0.78332902  0.82143626    -0.74500
O267        O  0.63487165  0.81727814  0.78679226    -0.74300
C268        C  0.70715403  0.87531655  0.79170084     0.77500
C269        C  0.67918637  0.90233506  0.90280862     0.78000
C270        C  0.59896396  0.89954662  0.81876028     0.76900
C271        C  0.60052530  0.81478250  0.89975911     0.77300
C272        C  0.71477114  0.79761047  0.87632886     0.78500
C273        C  0.63560875  0.79039470  0.79491443     0.77500
C274        C  0.51538210  0.97648333  0.75831858     0.80600
N275        N  0.51490109  0.97588747  0.72819239    -0.77700
C276        C  0.49604735  0.99342528  0.71245239     0.83000
N277        N  0.47777067  0.01202439  0.72739764    -0.77700
C278        C  0.47841513  0.01321762  0.75747026     0.83100
N279        N  0.49719049  0.99536553  0.77275345    -0.79400
Zn280      Zn  0.38625147  0.15440792  0.83790987     1.49700
Zn281      Zn  0.33542616  0.10454573  0.83814597     1.49400
Zn282      Zn  0.33779226  0.15366985  0.88988213     1.49100
Zn283      Zn  0.31928511  0.17067456  0.82551163     1.49500
O284        O  0.34512165  0.14550517  0.84811641    -1.83800
O285        O  0.40701861  0.11742324  0.82401347    -0.74400
O286        O  0.32026227  0.08339227  0.87437440    -0.74200
O287        O  0.37445707  0.16955559  0.90931713    -0.73700
O288        O  0.37109242  0.08408696  0.82175626    -0.74400
O289        O  0.40764037  0.17190299  0.87300790    -0.74000
O290        O  0.32182675  0.11749605  0.90977261    -0.74600
O291        O  0.29906690  0.20076281  0.85004047    -0.74000
O292        O  0.30269451  0.10122361  0.80739556    -0.74700
O293        O  0.30697776  0.18543550  0.89613765    -0.74100
O294        O  0.28826026  0.14802658  0.80500609    -0.74600
O295        O  0.34101577  0.19154495  0.79429930    -0.74500
O296        O  0.38856780  0.18378206  0.80364465    -0.74300
C297        C  0.39770592  0.09178129  0.81730297     0.77500
C298        C  0.31517992  0.09172047  0.90080394     0.78000
C299        C  0.39981357  0.17681473  0.89963597     0.76900
C300        C  0.29482793  0.20295901  0.87768854     0.77300
C301        C  0.28488992  0.12109049  0.79819239     0.78500
C302        C  0.36799607  0.19545727  0.78818909     0.77500
Zn303      Zn  0.39277231  0.84401749  0.15472948     1.49700
Zn304      Zn  0.34172034  0.89466414  0.15513631     1.49400
Zn305      Zn  0.34150436  0.84374123  0.10516601     1.49100
Zn306      Zn  0.32726865  0.82931987  0.17143478     1.49500
O307        O  0.35120188  0.85332889  0.14623445    -1.83800
O308        O  0.41322221  0.88067836  0.16914293    -0.74400
O309        O  0.32612868  0.91512699  0.11846545    -0.74200
O310        O  0.37712107  0.82649965  0.08442662    -0.73700
O311        O  0.37774267  0.91478000  0.17068060    -0.74400
O312        O  0.41256893  0.82678617  0.11866997    -0.74000
O313        O  0.32473194  0.87948101  0.08453898    -0.74600
O314        O  0.30599171  0.79889608  0.14921237    -0.74000
O315        O  0.30972031  0.89916854  0.18674076    -0.74700
O316        O  0.31018656  0.81244841  0.10212384    -0.74100
O317        O  0.29716773  0.85230495  0.19305618    -0.74600
O318        O  0.35102398  0.80863861  0.20147732    -0.74500
O319        O  0.39771486  0.81381824  0.18807820    -0.74300
C320        C  0.40422069  0.90659588  0.17570840     0.77500
C321        C  0.31943939  0.90589331  0.09270033     0.78000
C322        C  0.40332345  0.82024280  0.09283882     0.76900
C323        C  0.29968965  0.79570070  0.12207688     0.77300
C324        C  0.29340648  0.87952413  0.19843476     0.78500
C325        C  0.37823448  0.80313879  0.20525065     0.77500
Zn326      Zn  0.62275303  0.12863684  0.12669840     1.49700
Zn327      Zn  0.68912034  0.14545061  0.14691326     1.49400
Zn328      Zn  0.63972755  0.19543322  0.14272472     1.49100
Zn329      Zn  0.63848484  0.14765517  0.19351556     1.49500
O330        O  0.64730566  0.15404351  0.15207586    -1.83800
O331        O  0.64938050  0.10440088  0.09953943    -0.74400
O332        O  0.71066489  0.18204273  0.13551010    -0.74200
O333        O  0.60836809  0.19973843  0.11222918    -0.73700
O334        O  0.69453971  0.11656350  0.11444026    -0.74400
O335        O  0.59520554  0.15400247  0.10040973    -0.74000
O336        O  0.67610468  0.21613113  0.12886048    -0.74600
O337        O  0.62366821  0.18392718  0.21355375    -0.74000
O338        O  0.70961037  0.13063834  0.18410059    -0.74700
O339        O  0.62691493  0.21800880  0.17846405    -0.74100
O340        O  0.67397282  0.13561122  0.21698586    -0.74600
O341        O  0.60980865  0.11558744  0.19797765    -0.74500
O342        O  0.59865253  0.10020834  0.15267820    -0.74300
C343        C  0.67741629  0.10241567  0.09733259     0.77500
C344        C  0.70310842  0.20832347  0.12886221     0.78000
C345        C  0.59257339  0.18200940  0.09738380     0.76900
C346        C  0.62168103  0.21067228  0.20514157     0.77300
C347        C  0.70061164  0.12947109  0.21074193     0.78500
C348        C  0.59623801  0.09812458  0.18082535     0.77500
C349        C  0.48548164  0.51712247  0.25345172     0.80600
N350        N  0.48713967  0.51745923  0.22344363    -0.77700
C351        C  0.50434652  0.49761449  0.20875392     0.83000
N352        N  0.52008312  0.47735764  0.22479840    -0.77700
C353        C  0.51881944  0.47716424  0.25491848     0.83100
N354        N  0.50160422  0.49714793  0.26901964    -0.79400
C355        C  0.74915269  0.48595447  0.47389432     0.80600
N356        N  0.73453337  0.50486727  0.49181250    -0.77700
C357        C  0.74938094  0.52290445  0.51034598     0.83000
N358        N  0.77941584  0.52166500  0.51093084    -0.77700
C359        C  0.79460451  0.50271715  0.49309198     0.83100
N360        N  0.77910883  0.48479200  0.47471661    -0.79400
Zn361      Zn  0.65723040  0.39083228  0.34371998     1.49700
Zn362      Zn  0.61069205  0.33829156  0.34413175     1.49400
Zn363      Zn  0.67764477  0.32536198  0.33135639     1.49100
Zn364      Zn  0.65873100  0.34194825  0.39632698     1.49500
O365        O  0.65091847  0.34925671  0.35417401    -1.83800
O366        O  0.62003296  0.40992979  0.32893793    -0.74400
O367        O  0.60899896  0.30791367  0.31207444    -0.74200
O368        O  0.70553354  0.35019676  0.30935368    -0.73700
O369        O  0.58773938  0.37311193  0.32830127    -0.74400
O370        O  0.68808444  0.39603035  0.31187195    -0.74000
O371        O  0.65640185  0.30117921  0.30147067    -0.74600
O372        O  0.69020405  0.31035109  0.40284992    -0.74000
O373        O  0.59093079  0.32095359  0.37943701    -0.74700
O374        O  0.70258786  0.29934053  0.35662930    -0.74100
O375        O  0.62191234  0.32763819  0.41721253    -0.74600
O376        O  0.67556121  0.37866499  0.41443293    -0.74500
O377        O  0.67346075  0.41258652  0.37851677    -0.74300
C378        C  0.59451022  0.39990006  0.32311329     0.77500
C379        C  0.62926350  0.29619091  0.29666973     0.78000
C380        C  0.70672851  0.37731046  0.30233434     0.76900
C381        C  0.70578291  0.29603015  0.38437451     0.77300
C382        C  0.59747254  0.31845790  0.40675490     0.78500
C383        C  0.68090826  0.40449726  0.40452438     0.77500
C384        C  0.51596125  0.25347026  0.47978469     0.80600
N385        N  0.51690758  0.22350048  0.48123676    -0.77700
C386        C  0.49787326  0.20840725  0.49880093     0.83000
N387        N  0.47762046  0.22377663  0.51473578    -0.77700
C388        C  0.47632336  0.25377828  0.51347383     0.83100
N389        N  0.49580839  0.26847156  0.49612269    -0.79400
C390        C  0.48477123  0.74175780  0.47852997     0.80600
N391        N  0.50141845  0.72695789  0.49874765    -0.77700
C392        C  0.51904889  0.74170265  0.51786334     0.83000
N393        N  0.52015849  0.77173143  0.51634451    -0.77700
C394        C  0.50378687  0.78700553  0.49597840     0.83100
N395        N  0.48611504  0.77174155  0.47719174    -0.79400
Zn396      Zn  0.32952686  0.67577926  0.31750712     1.49700
Zn397      Zn  0.34567616  0.66209851  0.38399062     1.49400
Zn398      Zn  0.34669993  0.61071859  0.33492772     1.49100
Zn399      Zn  0.39558021  0.66293526  0.33284573     1.49500
O400        O  0.35475213  0.65250843  0.34267162    -1.83800
O401        O  0.29900209  0.69654707  0.34064968    -0.74400
O402        O  0.32938886  0.62638294  0.40494069    -0.74200
O403        O  0.31481930  0.60566353  0.30332193    -0.73700
O404        O  0.31380790  0.69363155  0.38745959    -0.74400
O405        O  0.30824675  0.65197054  0.28800983    -0.74000
O406        O  0.33204041  0.59002666  0.37197100    -0.74600
O407        O  0.41644132  0.62755389  0.31590432    -0.74000
O408        O  0.38206548  0.67672680  0.40489383    -0.74700
O409        O  0.38362042  0.59120718  0.31951837    -0.74100
O410        O  0.41624682  0.67732681  0.36946438    -0.74600
O411        O  0.39886127  0.69679554  0.30316554    -0.74500
O412        O  0.35142616  0.70671997  0.29617344    -0.74300
C413        C  0.29604025  0.70321528  0.36772918     0.77500
C414        C  0.32506060  0.59963970  0.39752418     0.78000
C415        C  0.30279705  0.62462140  0.28611494     0.76900
C416        C  0.40897362  0.60074237  0.31201865     0.77300
C417        C  0.40809837  0.68234734  0.39596620     0.78500
C418        C  0.37839948  0.71262662  0.29191884     0.77500
C419        C  0.26418587  0.51943325  0.47659142     0.80600
N420        N  0.23418876  0.52044318  0.47721261    -0.77700
C421        C  0.21852524  0.50185721  0.49488145     0.83000
N422        N  0.23355629  0.48231856  0.51243407    -0.77700
C423        C  0.26361247  0.48136715  0.51242361     0.83100
N424        N  0.27865068  0.49989716  0.49433669    -0.79400
C425        C  0.52063090  0.51405260  0.73824298     0.80600
N426        N  0.50315210  0.49489217  0.72330302    -0.77700
C427        C  0.48405396  0.47709336  0.73795146     0.83000
N428        N  0.48277332  0.47857638  0.76800301    -0.77700
C429        C  0.49977832  0.49764975  0.78356195     0.83100
N430        N  0.51870710  0.51547263  0.76838293    -0.79400
Zn431      Zn  0.37277507  0.37051898  0.62494795     1.49700
Zn432      Zn  0.35538713  0.34965308  0.69121832     1.49400
Zn433      Zn  0.30533902  0.35602974  0.64283588     1.49100
Zn434      Zn  0.35090335  0.30428567  0.63851225     1.49500
O435        O  0.34646619  0.34549417  0.64926776    -1.83800
O436        O  0.39979661  0.39534427  0.65201970    -0.74400
O437        O  0.31980919  0.36368782  0.71396095    -0.74200
O438        O  0.30197504  0.38513675  0.61032397    -0.73700
O439        O  0.38709588  0.37924609  0.69665266    -0.74400
O440        O  0.34774346  0.39726721  0.59770140    -0.74000
O441        O  0.28621667  0.37221122  0.67927044    -0.74600
O442        O  0.31338479  0.28547606  0.62506532    -0.74000
O443        O  0.36856073  0.31113659  0.70998281    -0.74700
O444        O  0.28077221  0.32130759  0.63092366    -0.74100
O445        O  0.36451140  0.27978648  0.67262728    -0.74600
O446        O  0.37996471  0.29987963  0.60664904    -0.74500
O447        O  0.39807965  0.34442258  0.59768916    -0.74300
C448        C  0.40280872  0.39570200  0.68023305     0.77500
C449        C  0.29407946  0.37224764  0.70633237     0.78000
C450        C  0.31980994  0.39945317  0.59412963     0.76900
C451        C  0.28687668  0.29471754  0.62436644     0.77300
C452        C  0.37022832  0.28507934  0.69962361     0.78500
C453        C  0.39739781  0.31668459  0.59257636     0.77500
Zn454      Zn  0.62923641  0.62266454  0.62231997     1.49700
Zn455      Zn  0.64768487  0.68980119  0.63937752     1.49400
Zn456      Zn  0.64576259  0.64007813  0.68830665     1.49100
Zn457      Zn  0.69639796  0.64084181  0.64117804     1.49500
O458        O  0.65451023  0.64798761  0.64726021    -1.83800
O459        O  0.60157165  0.64950470  0.59754047    -0.74400
O460        O  0.63723020  0.71186240  0.67609513    -0.74200
O461        O  0.61384624  0.61137067  0.69340346    -0.73700
O462        O  0.61480427  0.69470338  0.61122043    -0.74400
O463        O  0.60301772  0.59516299  0.64842205    -0.74000
O464        O  0.63428671  0.67630168  0.70964999    -0.74600
O465        O  0.71702706  0.62580134  0.67779227    -0.74000
O466        O  0.68317100  0.71087392  0.62345712    -0.74700
O467        O  0.68058270  0.62491232  0.71025590    -0.74100
O468        O  0.71838515  0.67740552  0.62880496    -0.74600
O469        O  0.70100046  0.61191007  0.60918336    -0.74500
O470        O  0.65613906  0.59840554  0.59452033    -0.74300
C471        C  0.59852311  0.67762331  0.59617195     0.77500
C472        C  0.63280876  0.70342349  0.70255174     0.78000
C473        C  0.59899137  0.59483510  0.67650328     0.76900
C474        C  0.70761668  0.62127592  0.70390950     0.77300
C475        C  0.71025110  0.70360158  0.62230259     0.78500
C476        C  0.68429674  0.59706499  0.59228182     0.77500
C477        C  0.24355491  0.02093962  0.51491041     0.80600
N478        N  0.27360015  0.02168237  0.51392061    -0.77700
C479        C  0.28891475  0.00307725  0.49585233     0.83000
N480        N  0.27368334  0.98360364  0.47908250    -0.77700
C481        C  0.24382073  0.98268514  0.47976448     0.83100
N482        N  0.22879086  0.00141425  0.49767611    -0.79400
C483        C  0.75629706  0.01399519  0.48719281     0.80600
N484        N  0.72641626  0.01462366  0.48776022    -0.77700
C485        C  0.71098244  0.99681795  0.50626210     0.83000
N486        N  0.72612812  0.97763274  0.52415699    -0.77700
C487        C  0.75620993  0.97666525  0.52376916     0.83100
N488        N  0.77111067  0.99520931  0.50545388    -0.79400
C489        C  0.01436312  0.24737376  0.52135515     0.80600
N490        N  0.01663181  0.27716587  0.51823309    -0.77700
C491        C  0.99987893  0.29214204  0.49797208     0.83000
N492        N  0.98125561  0.27658885  0.48035335    -0.77700
C493        C  0.97904473  0.24677459  0.48315841     0.83100
N494        N  0.99546191  0.23235008  0.50380131    -0.79400
C495        C  0.97576141  0.01850922  0.26224556     0.80600
N496        N  0.97551096  0.01917593  0.23215050    -0.77700
C497        C  0.99395174  0.00165583  0.21620480     0.83000
N498        N  0.01286289  0.98326451  0.23096793    -0.77700
C499        C  0.01371870  0.98272943  0.26108642     0.83100
N500        N  0.99506150  0.00036264  0.27665393    -0.79400
C501        C  0.99467755  0.75917144  0.52505452     0.80600
N502        N  0.99451025  0.72916609  0.52427388    -0.77700
C503        C  0.01123008  0.71411134  0.50440667     0.83000
N504        N  0.02870946  0.72957346  0.48552904    -0.77700
C505        C  0.02895766  0.75959549  0.48589677     0.83100
N506        N  0.01171739  0.77431915  0.50556027    -0.79400
Zn507      Zn  0.16235921  0.89283378  0.33648296     1.49700
Zn508      Zn  0.11228723  0.84211302  0.33984014     1.49400
Zn509      Zn  0.17717744  0.82631450  0.31952923     1.49100
Zn510      Zn  0.16627332  0.84095973  0.38639973     1.49500
O511        O  0.15435059  0.85094148  0.34573485    -1.83800
O512        O  0.12471123  0.91347588  0.32203357    -0.74400
O513        O  0.10572241  0.81077656  0.30854663    -0.74200
O514        O  0.20238527  0.85005331  0.29282143    -0.73700
O515        O  0.09083730  0.87815630  0.32486621    -0.74400
O516        O  0.19327904  0.89710249  0.30356019    -0.74000
O517        O  0.15162181  0.80277423  0.29336651    -0.74600
O518        O  0.19804885  0.80925026  0.38882347    -0.74000
O519        O  0.09375023  0.82702636  0.37756396    -0.74700
O520        O  0.20232228  0.79741818  0.34141016    -0.74100
O521        O  0.13167128  0.82457677  0.40894284    -0.74600
O522        O  0.18186429  0.87698603  0.40659513    -0.74500
O523        O  0.17804834  0.91317915  0.37310613    -0.74300
C524        C  0.09837312  0.90438840  0.31807485     0.77500
C525        C  0.12414225  0.79809171  0.29157283     0.78000
C526        C  0.20641996  0.87743382  0.28826072     0.76900
C527        C  0.20894201  0.79329541  0.36845517     0.77300
C528        C  0.10464029  0.82007663  0.40271056     0.78500
C529        C  0.18521182  0.90387509  0.39888331     0.77500
Zn530      Zn  0.81964932  0.17823663  0.33429726     1.49700
Zn531      Zn  0.88547962  0.16005205  0.34664119     1.49400
Zn532      Zn  0.83696989  0.15859075  0.39947087     1.49100
Zn533      Zn  0.83484126  0.11069529  0.34636099     1.49500
O534        O  0.84439887  0.15158369  0.35697836    -1.83800
O535        O  0.84264028  0.20470794  0.30804845    -0.74400
O536        O  0.90690165  0.17520484  0.38243635    -0.74200
O537        O  0.80516920  0.19016108  0.40616287    -0.73700
O538        O  0.88944621  0.19198385  0.31531936    -0.74400
O539        O  0.79660650  0.20476281  0.35990692    -0.74000
O540        O  0.87389987  0.17413237  0.41885155    -0.74600
O541        O  0.81972455  0.08919070  0.38249154    -0.74000
O542        O  0.90537760  0.12404705  0.32993717    -0.74700
O543        O  0.82354027  0.12101100  0.41979943    -0.74100
O544        O  0.87074262  0.08936666  0.32991014    -0.74600
O545        O  0.80249815  0.10898536  0.31494441    -0.74500
O546        O  0.79103508  0.15652805  0.30947927    -0.74300
C547        C  0.86989541  0.20792629  0.30273670     0.77500
C548        C  0.89955212  0.18028070  0.40917255     0.78000
C549        C  0.79229801  0.20708175  0.38750489     0.76900
C550        C  0.81663299  0.09567586  0.40977020     0.77300
C551        C  0.89681544  0.09798870  0.32397267     0.78500
C552        C  0.78687777  0.12952363  0.30338571     0.77500
C553        C  0.01776351  0.01771214  0.74784220     0.80600
N554        N  0.00022093  0.99823683  0.73351928    -0.77700
C555        C  0.98363402  0.97871235  0.74898879     0.83000
N556        N  0.98414307  0.97914583  0.77905938    -0.77700
C557        C  0.00156344  0.99861516  0.79371928     0.83100
N558        N  0.01851049  0.01773394  0.77794895    -0.79400
Zn559      Zn  0.82904718  0.82039664  0.67779521     1.49700
Zn560      Zn  0.84758784  0.83556154  0.61203211     1.49400
Zn561      Zn  0.84602125  0.88666236  0.66173502     1.49100
Zn562      Zn  0.89570893  0.83595578  0.66522777     1.49500
O563        O  0.85472817  0.84479052  0.65397202    -1.83800
O564        O  0.80257558  0.79588828  0.65306962    -0.74400
O565        O  0.82906490  0.87090141  0.59138024    -0.74200
O566        O  0.81364966  0.89149187  0.69227496    -0.73700
O567        O  0.81799575  0.80225123  0.60684956    -0.74400
O568        O  0.80270614  0.84482328  0.70305071    -0.74000
O569        O  0.83089945  0.90696394  0.62475015    -0.74600
O570        O  0.91527086  0.87177792  0.68273952    -0.74000
O571        O  0.88591627  0.82310835  0.59229070    -0.74700
O572        O  0.88171746  0.90753139  0.67786793    -0.74100
O573        O  0.91820216  0.82184707  0.62962336    -0.74600
O574        O  0.89911522  0.80291938  0.69533646    -0.74500
O575        O  0.85202797  0.79176809  0.70263803    -0.74300
C576        C  0.80112116  0.78999313  0.62568636     0.77500
C577        C  0.82395018  0.89747620  0.59916000     0.78000
C578        C  0.79853229  0.87240082  0.70624394     0.76900
C579        C  0.90717347  0.89857300  0.68606915     0.77300
C580        C  0.91170459  0.81771718  0.60249679     0.78500
C581        C  0.87933611  0.78713589  0.70734941     0.77500
Zn582      Zn  0.15569201  0.15802251  0.60885264     1.49700
Zn583      Zn  0.15630895  0.10624376  0.65829021     1.49400
Zn584      Zn  0.17117856  0.17217244  0.67505714     1.49100
Zn585      Zn  0.10517317  0.15705121  0.65937050     1.49500
O586        O  0.14678222  0.14803827  0.65012906    -1.83800
O587        O  0.17204365  0.12237276  0.58760119    -0.74400
O588        O  0.18718129  0.10101790  0.69099017    -0.74200
O589        O  0.19660449  0.19939121  0.65228056    -0.73700
O590        O  0.17182872  0.08614373  0.62124938    -0.74400
O591        O  0.18672209  0.18979823  0.60513553    -0.74000
O592        O  0.19559539  0.14795631  0.70185446    -0.74600
O593        O  0.10090959  0.18741597  0.69225929    -0.74000
O594        O  0.12021784  0.08626283  0.67465606    -0.74700
O595        O  0.14785657  0.19691787  0.70206999    -0.74100
O596        O  0.08470040  0.12059737  0.67451299    -0.74600
O597        O  0.08448083  0.17430602  0.62368508    -0.74500
O598        O  0.11943901  0.17526604  0.58906190    -0.74300
C599        C  0.17769497  0.09577188  0.59530679     0.77500
C600        C  0.19969358  0.12061593  0.70665855     0.78000
C601        C  0.20040161  0.20423645  0.62487767     0.76900
C602        C  0.12064019  0.20079486  0.70699840     0.77300
C603        C  0.09403139  0.09467650  0.68072854     0.78500
C604        C  0.09335172  0.18124143  0.59782505     0.77500
C605        C  0.03656183  0.03810374  0.73068578     0.00200
C606        C  0.06601300  0.04170679  0.73940752    -0.11700
C607        C  0.08504937  0.05972255  0.72312518     0.02400
C608        C  0.07466531  0.07452239  0.69745815     0.00100
C609        C  0.04495419  0.07172461  0.68924451    -0.11600
C610        C  0.02590224  0.05359392  0.70553464     0.02300
H611        H  0.07426454  0.03022398  0.75891486     0.15300
H612        H  0.03661954  0.08376880  0.67010593     0.15300
C613        C  0.99524552  0.05239951  0.69684194     0.37000
C614        C  0.11466309  0.06399015  0.73420587     0.36900
N615        N  0.97063709  0.05159848  0.68999907    -0.43400
N616        N  0.13830850  0.06765424  0.74315368    -0.43400
C617        C  0.96455420  0.95781600  0.73298091     0.00200
C618        C  0.94689908  0.96859784  0.70972442    -0.11700
C619        C  0.92807947  0.94984147  0.69407926     0.02400
C620        C  0.92740075  0.91936005  0.70105407     0.00100
C621        C  0.94566744  0.90849704  0.72391147    -0.11600
C622        C  0.96384637  0.92744729  0.74010702     0.02300
H623        H  0.94737829  0.99192441  0.70413983     0.15300
H624        H  0.94523788  0.88520051  0.72965030     0.15300
C625        C  0.98199904  0.91504760  0.76344431     0.37000
C626        C  0.91002107  0.96254092  0.67085612     0.36900
N627        N  0.99648416  0.90507702  0.78217540    -0.43400
N628        N  0.89547621  0.97293566  0.65241286    -0.43400
C629        C  0.04805776  0.77593744  0.46501848     0.00200
C630        C  0.07673107  0.76528504  0.45990393    -0.11700
C631        C  0.09554838  0.77961431  0.44002562     0.02400
C632        C  0.08573676  0.80519922  0.42477699     0.00100
C633        C  0.05690344  0.81560298  0.42947412    -0.11600
C634        C  0.03808479  0.80129439  0.44946964     0.02300
H635        H  0.08442834  0.74558051  0.47138044     0.15300
H636        H  0.04901644  0.83484266  0.41735857     0.15300
C637        C  0.00816730  0.81205459  0.45226628     0.37000
C638        C  0.12412693  0.76652920  0.43429293     0.36900
N639        N  0.98413330  0.82057001  0.45432440    -0.43400
N640        N  0.14692775  0.75596671  0.42947529    -0.43400
C641        C  0.97514253  0.77522156  0.54585140     0.00200
C642        C  0.95978456  0.80041520  0.53573266    -0.11700
C643        C  0.93933628  0.81496868  0.55388882     0.02400
C644        C  0.93434556  0.80461009  0.58293762     0.00100
C645        C  0.95065258  0.78024863  0.59350676    -0.11600
C646        C  0.97075171  0.76542168  0.57526583     0.02300
H647        H  0.96318463  0.80832701  0.51331670     0.15300
H648        H  0.94712820  0.77228674  0.61591402     0.15300
C649        C  0.98699805  0.74066175  0.58755852     0.37000
C650        C  0.92432777  0.84087043  0.54249515     0.36900
N651        N  0.00001928  0.72087234  0.59749592    -0.43400
N652        N  0.91239692  0.86172321  0.53342550    -0.43400
C653        C  0.91738458  0.07776555  0.30858604     0.00200
C654        C  0.92017302  0.04829951  0.31810740    -0.11700
C655        C  0.93940124  0.02865600  0.30370376     0.02400
C656        C  0.95580837  0.03835832  0.27894558     0.00100
C657        C  0.95265298  0.06770697  0.26926554    -0.11600
C658        C  0.93376677  0.08738674  0.28379555     0.02300
H659        H  0.90742434  0.04066994  0.33691070     0.15300
H660        H  0.96514083  0.07537033  0.25031731     0.15300
C661        C  0.93057317  0.11694889  0.27189763     0.37000
C662        C  0.94099267  0.99845158  0.31405089     0.36900
N663        N  0.92792731  0.14057785  0.26228200    -0.43400
N664        N  0.94222183  0.97423719  0.32235465    -0.43400
C665        C  0.03492217  0.96301077  0.27666516     0.00200
C666        C  0.03675776  0.93332381  0.26813564    -0.11700
C667        C  0.05674269  0.91385702  0.28185046     0.02400
C668        C  0.07611321  0.92423135  0.30408671     0.00100
C669        C  0.07451340  0.95405559  0.31240478    -0.11600
C670        C  0.05380615  0.97331524  0.29927702     0.02300
H671        H  0.02234225  0.92524960  0.25079331     0.15300
H672        H  0.08926973  0.96225163  0.32938485     0.15300
C673        C  0.05303022  0.00374704  0.30869753     0.37000
C674        C  0.05756830  0.88356399  0.27189142     0.36900
N675        N  0.05230369  0.02813486  0.31626281    -0.43400
N676        N  0.05819789  0.85926973  0.26401464    -0.43400
C677        C  0.03373110  0.23103749  0.54222458     0.00200
C678        C  0.06344752  0.23921844  0.54438337    -0.11700
C679        C  0.08321415  0.22304065  0.56204719     0.02400
C680        C  0.07328417  0.19810969  0.57808266     0.00100
C681        C  0.04332897  0.19056019  0.57679980    -0.11600
C682        C  0.02356932  0.20667065  0.55897584     0.02300
H683        H  0.07138818  0.25807424  0.53186759     0.15300
H684        H  0.03536602  0.17197293  0.58969549     0.15300
C685        C  0.99282650  0.19843334  0.55919830     0.37000
C686        C  0.11322658  0.23338551  0.56440858     0.36900
N687        N  0.96817758  0.19190109  0.55951189    -0.43400
N688        N  0.13721642  0.24177764  0.56644548    -0.43400
C689        C  0.95905231  0.22982209  0.46396797     0.00200
C690        C  0.94048511  0.20878505  0.47700474    -0.11700
C691        C  0.92119129  0.19199679  0.45975062     0.02400
C692        C  0.92078449  0.19569323  0.42864469     0.00100
C693        C  0.94003689  0.21624750  0.41562789    -0.11600
C694        C  0.95888906  0.23340000  0.43295306     0.02300
H695        H  0.94075791  0.20576483  0.50086237     0.15300
H696        H  0.93991891  0.21946684  0.39179689     0.15300
C697        C  0.97847837  0.25378434  0.41826538     0.37000
C698        C  0.90248652  0.17097010  0.47462934     0.36900
N699        N  0.99418312  0.27007680  0.40644356    -0.43400
N700        N  0.88753423  0.15428371  0.48686006    -0.43400
C701        C  0.77310476  0.95582316  0.54303571     0.00200
C702        C  0.80094549  0.96456408  0.55363803    -0.11700
C703        C  0.81815391  0.94572438  0.57143376     0.02400
C704        C  0.80778022  0.91735313  0.57869982     0.00100
C705        C  0.78034673  0.90823787  0.56767316    -0.11600
C706        C  0.76290513  0.92715809  0.55013495     0.02300
H707        H  0.80929105  0.98632247  0.54815551     0.15300
H708        H  0.77226272  0.88639063  0.57325281     0.15300
C709        C  0.73521239  0.91607670  0.53903486     0.37000
C710        C  0.84686155  0.95553988  0.58100472     0.36900
N711        N  0.71308055  0.90698020  0.53019489    -0.43400
N712        N  0.86998500  0.96334708  0.58840462    -0.43400
C713        C  0.80286220  0.07371366  0.42970735     0.00200
C714        C  0.77833220  0.05816501  0.41912818    -0.11700
C715        C  0.76304569  0.03849231  0.43737340     0.02400
C716        C  0.77249115  0.03375450  0.46685031     0.00100
C717        C  0.79762797  0.04851301  0.47719042    -0.11600
C718        C  0.81268376  0.06857747  0.45900380     0.02300
H719        H  0.77066358  0.06186405  0.39663068     0.15300
H720        H  0.80520098  0.04477798  0.49971095     0.15300
C721        C  0.83862803  0.08274945  0.47065597     0.37000
C722        C  0.73823094  0.02290186  0.42497058     0.36900
N723        N  0.85952910  0.09377986  0.48020020    -0.43400
N724        N  0.71835772  0.01040413  0.41502886    -0.43400
C725        C  0.22679264  0.04050235  0.53518720     0.00200
C726        C  0.20262238  0.02881887  0.55073659    -0.11700
C727        C  0.18621269  0.04627947  0.57039616     0.02400
C728        C  0.19333370  0.07634641  0.57409102     0.00100
C729        C  0.21710460  0.08816891  0.55809364    -0.11600
C730        C  0.23404667  0.07052847  0.53911915     0.02300
H731        H  0.19682761  0.00578387  0.54790595     0.15300
H732        H  0.22293632  0.11119554  0.56097364     0.15300
C733        C  0.25830761  0.08402635  0.52352832     0.37000
C734        C  0.16185453  0.03297529  0.58599112     0.36900
N735        N  0.27779746  0.09487962  0.51113572    -0.43400
N736        N  0.14236180  0.02225852  0.59849898    -0.43400
C737        C  0.19891795  0.92430989  0.42024602     0.00200
C738        C  0.22223154  0.91364065  0.43792936    -0.11700
C739        C  0.23695386  0.93219200  0.45763832     0.02400
C740        C  0.22792719  0.96194569  0.46042249     0.00100
C741        C  0.20405360  0.97244375  0.44343963    -0.11600
C742        C  0.18977074  0.95403868  0.42314589     0.02300
H743        H  0.22943617  0.89084030  0.43586988     0.15300
H744        H  0.19705737  0.99530409  0.44545794     0.15300
C745        C  0.16554499  0.96606137  0.40600131     0.37000
C746        C  0.26089473  0.91997230  0.47509042     0.36900
N747        N  0.14615857  0.97570807  0.39221993    -0.43400
N748        N  0.28010157  0.91017791  0.48902333    -0.43400
C749        C  0.73309431  0.72630085  0.61558308     0.00200
C750        C  0.76293586  0.71735398  0.61451425    -0.11700
C751        C  0.78574438  0.73809184  0.61509612     0.02400
C752        C  0.77893230  0.76839982  0.61637714     0.00100
C753        C  0.74944356  0.77761175  0.61481568    -0.11600
C754        C  0.72651099  0.75701471  0.61415228     0.02300
H755        H  0.76863295  0.69405195  0.61502615     0.15300
H756        H  0.74425982  0.80102758  0.61588208     0.15300
C757        C  0.69666422  0.76841593  0.61386970     0.37000
C758        C  0.81592347  0.72775078  0.61661314     0.36900
N759        N  0.67281067  0.77770967  0.61364338    -0.43400
N760        N  0.84011410  0.71948855  0.61785943    -0.43400
C761        C  0.26286489  0.27344510  0.61764675     0.00200
C762        C  0.27058892  0.24473627  0.60824811    -0.11700
C763        C  0.24970619  0.22206497  0.60767350     0.02400
C764        C  0.22062239  0.22798958  0.61663955     0.00100
C765        C  0.21214581  0.25693873  0.62337255    -0.11600
C766        C  0.23276736  0.27975815  0.62365159     0.02300
H767        H  0.29331137  0.23950244  0.60280809     0.15300
H768        H  0.18956935  0.26140248  0.63006279     0.15300
C769        C  0.22238089  0.30876549  0.63204262     0.37000
C770        C  0.25901463  0.19253909  0.59986903     0.36900
N771        N  0.21385647  0.33193842  0.63875562    -0.43400
N772        N  0.26643289  0.16888777  0.59353784    -0.43400
C773        C  0.54052066  0.53429057  0.72161074     0.00200
C774        C  0.54437393  0.56309585  0.73212745    -0.11700
C775        C  0.56219102  0.58334472  0.71705399     0.02400
C776        C  0.57708954  0.57492398  0.69077297     0.00100
C777        C  0.57291096  0.54625167  0.67991899    -0.11600
C778        C  0.55502227  0.52592311  0.69511614     0.02300
H779        H  0.53304165  0.57003498  0.75207507     0.15300
H780        H  0.58455342  0.53931647  0.66016020     0.15300
C781        C  0.55339575  0.49616323  0.68389934     0.37000
C782        C  0.56417850  0.61289798  0.72888310     0.36900
N783        N  0.55223904  0.47227890  0.67495103    -0.43400
N784        N  0.56575760  0.63653975  0.73839661    -0.43400
C785        C  0.46458249  0.45599572  0.72179798     0.00200
C786        C  0.45190841  0.43285425  0.73807331    -0.11700
C787        C  0.43219096  0.41308404  0.72518252     0.02400
C788        C  0.42471910  0.41568355  0.69468952     0.00100
C789        C  0.43802222  0.43834963  0.67807443    -0.11600
C790        C  0.45758693  0.45846657  0.69122757     0.02300
H791        H  0.45731616  0.43008050  0.76133194     0.15300
H792        H  0.43263065  0.44086450  0.65478242     0.15300
C793        C  0.46913627  0.48186245  0.67283240     0.37000
C794        C  0.42010731  0.39059557  0.74440017     0.36900
N795        N  0.47830602  0.50058096  0.65797979    -0.43400
N796        N  0.41041304  0.37288874  0.76012613    -0.43400
C797        C  0.27973738  0.45994565  0.53169710     0.00200
C798        C  0.26633535  0.43282192  0.53814981    -0.11700
C799        C  0.27990015  0.41219715  0.55697276     0.02400
C800        C  0.30709449  0.41895226  0.57082548     0.00100
C801        C  0.32125881  0.44539704  0.56333962    -0.11600
C802        C  0.30803075  0.46575600  0.54379513     0.02300
H803        H  0.24526087  0.42748569  0.52812508     0.15300
H804        H  0.34231536  0.45060755  0.57346099     0.15300
C805        C  0.32368152  0.49276050  0.53753459     0.37000
C806        C  0.26590047  0.38379315  0.56071196     0.36900
N807        N  0.33640901  0.51427488  0.53240287    -0.43400
N808        N  0.25487972  0.36094379  0.56351705    -0.43400
C809        C  0.27152452  0.72313226  0.37541349     0.00200
C810        C  0.27755463  0.74991315  0.38970131    -0.11700
C811        C  0.25653231  0.77283529  0.38973829     0.02400
C812        C  0.22910232  0.76866952  0.37556686     0.00100
C813        C  0.22224614  0.74095107  0.36381095    -0.11600
C814        C  0.24313897  0.71822895  0.36362577     0.02300
H815        H  0.29943580  0.75380613  0.39858697     0.15300
H816        H  0.20098547  0.73756829  0.35328982     0.15300
C817        C  0.23543303  0.69053695  0.34986505     0.37000
C818        C  0.26468844  0.80117708  0.40165387     0.36900
N819        N  0.22928946  0.66839307  0.33879136    -0.43400
N820        N  0.27135371  0.82391191  0.41109948    -0.43400
C821        C  0.31019630  0.57966056  0.41865463     0.00200
C822        C  0.32238606  0.55173947  0.42469712    -0.11700
C823        C  0.30832602  0.53200496  0.44404393     0.02400
C824        C  0.28085856  0.53978985  0.45693084     0.00100
C825        C  0.26873813  0.56777978  0.45067281    -0.11600
C826        C  0.28324919  0.58776450  0.43206893     0.02300
H827        H  0.34309563  0.54543732  0.41444245     0.15300
H828        H  0.24788167  0.57422416  0.46052342     0.15300
C829        C  0.26942320  0.61606387  0.42622886     0.37000
C830        C  0.32241260  0.50379793  0.44961217     0.36900
N831        N  0.25837006  0.63874589  0.42157797    -0.43400
N832        N  0.33389477  0.48131574  0.45420907    -0.43400
C833        C  0.53762232  0.72473028  0.53923581     0.00200
C834        C  0.54716281  0.69608920  0.53151319    -0.11700
C835        C  0.56611254  0.67967624  0.54999935     0.02400
C836        C  0.57579987  0.69183712  0.57700138     0.00100
C837        C  0.56514839  0.71986788  0.58530035    -0.11600
C838        C  0.54631377  0.73627524  0.56689397     0.02300
H839        H  0.54059584  0.68677559  0.51044140     0.15300
H840        H  0.57182470  0.72926480  0.60631899     0.15300
C841        C  0.53586180  0.76446570  0.57759336     0.37000
C842        C  0.57649124  0.65126778  0.53985940     0.36900
N843        N  0.52767537  0.78689971  0.58673401    -0.43400
N844        N  0.58484468  0.62852465  0.53166569    -0.43400
C845        C  0.46574128  0.72538563  0.45765649     0.00200
C846        C  0.46276211  0.73616112  0.42862013    -0.11700
C847        C  0.44467735  0.72201128  0.40807365     0.02400
C848        C  0.42893478  0.69651805  0.41651629     0.00100
C849        C  0.43187596  0.68556779  0.44548258    -0.11600
C850        C  0.45035062  0.69951183  0.46597576     0.02300
H851        H  0.47472843  0.75568456  0.42185885     0.15300
H852        H  0.41967003  0.66608444  0.45210408     0.15300
C853        C  0.45226097  0.68727639  0.49553279     0.37000
C854        C  0.44149645  0.73504791  0.37894677     0.36900
N855        N  0.45386126  0.67735052  0.51916326    -0.43400
N856        N  0.43888248  0.74557446  0.35566489    -0.43400
C857        C  0.45467971  0.27052743  0.53166951     0.00200
C858        C  0.46067792  0.30012055  0.53903147    -0.11700
C859        C  0.44205691  0.31621689  0.55788946     0.02400
C860        C  0.41685761  0.30258162  0.57009572     0.00100
C861        C  0.41015877  0.27352980  0.56140150    -0.11600
C862        C  0.42845053  0.25762300  0.54237936     0.02300
H863        H  0.48042575  0.31062386  0.53063001     0.15300
H864        H  0.39038495  0.26288389  0.56958059     0.15300
C865        C  0.41901350  0.22842669  0.53383332     0.37000
C866        C  0.44988576  0.34629992  0.56468979     0.36900
N867        N  0.41118647  0.20510552  0.52708451    -0.43400
N868        N  0.45618696  0.37046053  0.56994636    -0.43400
C869        C  0.72906718  0.27564699  0.39451598     0.00200
C870        C  0.72138876  0.24718011  0.40406731    -0.11700
C871        C  0.74266420  0.22451449  0.40502902     0.02400
C872        C  0.77204017  0.23064180  0.39695658     0.00100
C873        C  0.78008731  0.25973667  0.39011270    -0.11600
C874        C  0.75885567  0.28217682  0.38859994     0.02300
H875        H  0.69840236  0.24203693  0.40811652     0.15300
H876        H  0.80258256  0.26440566  0.38346440     0.15300
C877        C  0.76771392  0.31114563  0.37846431     0.37000
C878        C  0.73325223  0.19464768  0.41089457     0.36900
N879        N  0.77482271  0.33428297  0.37021224    -0.43400
N880        N  0.72567224  0.17067022  0.41538418    -0.43400
C881        C  0.57670638  0.30259919  0.42605013     0.00200
C882        C  0.56505648  0.27594450  0.41563257    -0.11700
C883        C  0.54549095  0.25944459  0.43277155     0.02400
C884        C  0.53692694  0.26983753  0.46093085     0.00100
C885        C  0.54833010  0.29676441  0.47120597    -0.11600
C886        C  0.56830858  0.31304139  0.45413154     0.02300
H887        H  0.57147034  0.26783939  0.39399158     0.15300
H888        H  0.54179186  0.30501420  0.49273697     0.15300
C889        C  0.57893787  0.34083542  0.46534883     0.37000
C890        C  0.53377098  0.23263800  0.42024747     0.36900
N891        N  0.58737091  0.36316889  0.47430434    -0.43400
N892        N  0.52449778  0.21124729  0.40992865    -0.43400
C893        C  0.73246086  0.54289083  0.53020637     0.00200
C894        C  0.70319311  0.53551478  0.53773257    -0.11700
C895        C  0.68646692  0.55309602  0.55703359     0.02400
C896        C  0.69912227  0.57856332  0.56955220     0.00100
C897        C  0.72793798  0.58643521  0.56111848    -0.11600
C898        C  0.74447035  0.56918561  0.54162285     0.02300
H899        H  0.69338649  0.51559368  0.52892829     0.15300
H900        H  0.73775827  0.60644518  0.56973726     0.15300
C901        C  0.77314543  0.57993971  0.53299984     0.37000
C902        C  0.65685141  0.54392843  0.56414435     0.36900
N903        N  0.79595544  0.58903003  0.52614122    -0.43400
N904        N  0.63306997  0.53658858  0.56969719    -0.43400
C905        C  0.69804278  0.42508602  0.42284823     0.00200
C906        C  0.69033312  0.45513651  0.42294629    -0.11700
C907        C  0.70708464  0.47548912  0.43891109     0.02400
C908        C  0.73223719  0.46580090  0.45487456     0.00100
C909        C  0.74050368  0.43594322  0.45393574    -0.11600
C910        C  0.72368626  0.41557362  0.43812259     0.02300
H911        H  0.67119044  0.46270805  0.41052524     0.15300
H912        H  0.75989928  0.42841219  0.46597039     0.15300
C913        C  0.73406173  0.38535171  0.43674129     0.37000
C914        C  0.69862431  0.50630331  0.43766872     0.36900
N915        N  0.74239433  0.36116666  0.43546772    -0.43400
N916        N  0.69194111  0.53101209  0.43662379    -0.43400
C917        C  0.46634638  0.53838871  0.26912166     0.00200
C918        C  0.46548755  0.56785848  0.25938819    -0.11700
C919        C  0.44771331  0.58879194  0.27361681     0.02400
C920        C  0.42987192  0.58011297  0.29775911     0.00100
C921        C  0.43069141  0.55061184  0.30741143    -0.11600
C922        C  0.44889436  0.52983327  0.29357367     0.02300
H923        H  0.47888205  0.57459343  0.24067827     0.15300
H924        H  0.41697102  0.54373453  0.32582930     0.15300
C925        C  0.44824871  0.49968387  0.30421713     0.37000
C926        C  0.44732670  0.61865341  0.26214456     0.36900
N927        N  0.44772033  0.47555636  0.31281773    -0.43400
N928        N  0.44706806  0.64257451  0.25294557    -0.43400
C929        C  0.53699130  0.45654468  0.27275166     0.00200
C930        C  0.55165354  0.46763064  0.29775745    -0.11700
C931        C  0.56986717  0.44943095  0.31508776     0.02400
C932        C  0.57299001  0.41929134  0.30791921     0.00100
C933        C  0.55727545  0.40788436  0.28372336    -0.11600
C934        C  0.53964651  0.42627824  0.26591836     0.02300
H935        H  0.54947242  0.49082615  0.30335320     0.15300
H936        H  0.55967266  0.38473714  0.27801126     0.15300
C937        C  0.52427077  0.41344482  0.24112317     0.37000
C938        C  0.58496614  0.46219223  0.34012215     0.36900
N939        N  0.51203802  0.40306551  0.22123631    -0.43400
N940        N  0.59711106  0.47245376  0.36012857    -0.43400
C941        C  0.72159525  0.12327584  0.23547336     0.00200
C942        C  0.71380173  0.13308381  0.26396448    -0.11700
C943        C  0.73433572  0.13313677  0.28706066     0.02400
C944        C  0.76323852  0.12275187  0.28214712     0.00100
C945        C  0.77047963  0.11043649  0.25467507    -0.11600
C946        C  0.74998884  0.11068921  0.23128222     0.02300
H947        H  0.69207591  0.14239802  0.26794127     0.15300
H948        H  0.79271720  0.10230710  0.25092811     0.15300
C949        C  0.75902829  0.09853577  0.20321700     0.37000
C950        C  0.72557211  0.14496347  0.31541744     0.36900
N951        N  0.76636027  0.08873540  0.18076421    -0.43400
N952        N  0.71859239  0.15440103  0.33813984    -0.43400
C953        C  0.61641187  0.23409507  0.22735776     0.00200
C954        C  0.62638990  0.26276348  0.22075530    -0.11700
C955        C  0.62923093  0.28386570  0.24297070     0.02400
C956        C  0.62146450  0.27661963  0.27223040     0.00100
C957        C  0.60867500  0.24924146  0.27847932    -0.11600
C958        C  0.60613110  0.22786040  0.25634194     0.02300
H959        H  0.63393208  0.26822082  0.19863248     0.15300
H960        H  0.60220090  0.24398440  0.30100369     0.15300
C961        C  0.59383150  0.19956314  0.26434978     0.37000
C962        C  0.64098614  0.31256191  0.23547148     0.36900
N963        N  0.58401640  0.17688894  0.27083600    -0.43400
N964        N  0.65031821  0.33559371  0.22955845    -0.43400
C965        C  0.26936026  0.88733319  0.21892184     0.00200
C966        C  0.24148725  0.87550446  0.21299274    -0.11700
C967        C  0.21986149  0.87444117  0.23489155     0.02400
C968        C  0.22586755  0.88554496  0.26340176     0.00100
C969        C  0.25286317  0.89967657  0.26873412    -0.11600
C970        C  0.27474432  0.90052588  0.24667342     0.02300
H971        H  0.23726668  0.86529415  0.19171202     0.15300
H972        H  0.25770911  0.90792726  0.29070996     0.15300
C973        C  0.30343783  0.91213759  0.25397325     0.37000
C974        C  0.19219356  0.86022042  0.22811703     0.36900
N975        N  0.32650650  0.92128401  0.25983042    -0.43400
N976        N  0.17006506  0.84875745  0.22278057    -0.43400
C977        C  0.38606629  0.78366459  0.23035129     0.00200
C978        C  0.36966133  0.78730220  0.25635681    -0.11700
C979        C  0.36877520  0.76514189  0.27777951     0.02400
C980        C  0.38509295  0.73882768  0.27369763     0.00100
C981        C  0.40421970  0.73647715  0.24935702    -0.11600
C982        C  0.40464780  0.75868718  0.22744821     0.02300
H983        H  0.35571068  0.80669832  0.25894426     0.15300
H984        H  0.41683834  0.71630876  0.24617536     0.15300
C985        C  0.42180837  0.75392329  0.20099023     0.37000
C986        C  0.34935208  0.76919580  0.30282462     0.36900
N987        N  0.43548604  0.75011149  0.17972189    -0.43400
N988        N  0.33356984  0.77231762  0.32269379    -0.43400
C989        C  0.25995142  0.11375732  0.77853225     0.00200
C990        C  0.26451068  0.09555962  0.75375473    -0.11700
C991        C  0.24365325  0.09492985  0.73062406     0.02400
C992        C  0.21814170  0.11278967  0.73243364     0.00100
C993        C  0.21221470  0.12809583  0.75866899    -0.11600
C994        C  0.23271072  0.12867679  0.78163793     0.02300
H995        H  0.28524156  0.08371356  0.75139587     0.15300
H996        H  0.19214761  0.14119391  0.76048318     0.15300
C997        C  0.22578308  0.14600039  0.80755778     0.37000
C998        C  0.24994403  0.07786935  0.70446113     0.36900
N999        N  0.22020414  0.15995778  0.82823054    -0.43400
N1000       N  0.25488700  0.06407012  0.68352358    -0.43400
C1001       C  0.37462392  0.21456359  0.76267386     0.00200
C1002       C  0.39329333  0.23886749  0.76640126    -0.11700
C1003       C  0.39381936  0.26164583  0.74521614     0.02400
C1004       C  0.37579609  0.25980555  0.71972684     0.00100
C1005       C  0.35956039  0.23398367  0.71476844    -0.11600
C1006       C  0.35857274  0.21161678  0.73604838     0.02300
H1007       H  0.40588509  0.24104150  0.78672615     0.15300
H1008       H  0.34587336  0.23210430  0.69512149     0.15300
C1009       C  0.33973034  0.18651826  0.73064619     0.37000
C1010       C  0.41269534  0.28667117  0.75029984     0.36900
N1011       N  0.32451162  0.16653370  0.72635834    -0.43400
N1012       N  0.42806494  0.30656349  0.75439907    -0.43400
C1013       C  0.41796861  0.07085473  0.80266667     0.00200
C1014       C  0.44715837  0.06823027  0.81277805    -0.11700
C1015       C  0.46719325  0.04928481  0.79871066     0.02400
C1016       C  0.45823489  0.03326807  0.77344648     0.00100
C1017       C  0.42915053  0.03622109  0.76317936    -0.11600
C1018       C  0.40893857  0.05448276  0.77770308     0.02300
H1019       H  0.45425747  0.08087387  0.83183014     0.15300
H1020       H  0.42206102  0.02392375  0.74389300     0.15300
C1021       C  0.37936968  0.05677762  0.76582790     0.37000
C1022       C  0.49693867  0.04741403  0.81016931     0.36900
N1023       N  0.35566287  0.05855694  0.75636674    -0.43400
N1024       N  0.52072774  0.04583875  0.81945500    -0.43400
C1025       C  0.72846816  0.88230594  0.76769695     0.00200
C1026       C  0.75688127  0.89224389  0.77537639    -0.11700
C1027       C  0.77984653  0.89207906  0.75463827     0.02400
C1028       C  0.77450454  0.88165079  0.72586834     0.00100
C1029       C  0.74574795  0.87463849  0.71727697    -0.11600
C1030       C  0.72263493  0.87520892  0.73764541     0.02300
H1031       H  0.76165575  0.89852593  0.79801501     0.15300
H1032       H  0.74168179  0.86695519  0.69491231     0.15300
C1033       C  0.69392708  0.86610569  0.72719806     0.37000
C1034       C  0.80908030  0.90058695  0.76388953     0.36900
N1035       N  0.67099939  0.85877237  0.71871229    -0.43400
N1036       N  0.83250367  0.90751974  0.77125261    -0.43400
C1037       C  0.62834534  0.72536691  0.72628229     0.00200
C1038       C  0.63474370  0.71646946  0.75545657    -0.11700
C1039       C  0.63624900  0.73685142  0.77840122     0.02400
C1040       C  0.63046780  0.76710383  0.77255466     0.00100
C1041       C  0.62199770  0.77568317  0.74371945    -0.11600
C1042       C  0.62110982  0.75527326  0.72060998     0.02300
H1043       H  0.64039912  0.69360484  0.76024259     0.15300
H1044       H  0.61706364  0.79867999  0.73882781     0.15300
C1045       C  0.61331210  0.76591871  0.69137247     0.37000
C1046       C  0.64575467  0.72592430  0.80703686     0.36900
N1047       N  0.60715904  0.77454613  0.66796699    -0.43400
N1048       N  0.65362354  0.71703232  0.82982406    -0.43400
C1049       C  0.57838243  0.92084771  0.80432278     0.00200
C1050       C  0.55195624  0.92879170  0.81841997    -0.11700
C1051       C  0.53102509  0.94690080  0.80408486     0.02400
C1052       C  0.53652438  0.95753342  0.77503220     0.00100
C1053       C  0.56323596  0.95009979  0.76134618    -0.11600
C1054       C  0.58412107  0.93225435  0.77560692     0.02300
H1055       H  0.54721927  0.92011753  0.84032526     0.15300
H1056       H  0.56808950  0.95859358  0.73938655     0.15300
C1057       C  0.61157310  0.92677453  0.76026955     0.37000
C1058       C  0.50367140  0.95300106  0.81927882     0.36900
N1059       N  0.63351490  0.92243952  0.74792085    -0.43400
N1060       N  0.48176164  0.95785783  0.83149302    -0.43400
C1061       C  0.71908692  0.04289080  0.03601792     0.00200
C1062       C  0.73182097  0.07033899  0.04228788    -0.11700
C1063       C  0.71801610  0.09043091  0.06114239     0.02400
C1064       C  0.69088791  0.08312607  0.07464375     0.00100
C1065       C  0.67743865  0.05622728  0.06752391    -0.11600
C1066       C  0.69125051  0.03606903  0.04846757     0.02300
H1067       H  0.75271986  0.07627679  0.03229692     0.15300
H1068       H  0.65660735  0.05043935  0.07773609     0.15300
C1069       C  0.67695345  0.00809818  0.04345077     0.37000
C1070       C  0.73191432  0.11873809  0.06548091     0.36900
N1071       N  0.66540504  0.98571422  0.03950025    -0.43400
N1072       N  0.74306124  0.14143164  0.06873527    -0.43400
C1073       C  0.72138754  0.96178807  0.96345343     0.00200
C1074       C  0.69304553  0.96876662  0.95243850    -0.01700
C1075       C  0.67816865  0.94950063  0.93330770     0.02400
C1076       C  0.69168367  0.92263122  0.92506638     0.00100
C1077       C  0.71945956  0.91529060  0.93693478    -0.11600
C1078       C  0.73427374  0.93433787  0.95593701     0.02300
H1079       H  0.68282972  0.98972740  0.95804331     0.15300
H1080       H  0.72983295  0.89441795  0.93120535     0.15300
C1081       C  0.76232142  0.92453640  0.96782452     0.37000
C1082       C  0.64998184  0.95856653  0.92124802     0.36900
N1083       N  0.78476819  0.91652753  0.97726320    -0.43400
N1084       N  0.62741709  0.96588313  0.91153952    -0.43400
C1085       C  0.26630660  0.96208460  0.03708980     0.00200
C1086       C  0.29285133  0.97282894  0.04903860    -0.11700
C1087       C  0.31077875  0.95493742  0.06707026     0.02400
C1088       C  0.30262440  0.92545372  0.07262194     0.00100
C1089       C  0.27633957  0.91459470  0.06043670    -0.11600
C1090       C  0.25794611  0.93270086  0.04319092     0.02300
H1091       H  0.29949131  0.99538582  0.04448270     0.15300
H1092       H  0.26976045  0.89202388  0.06506060     0.15300
C1093       C  0.23101788  0.92031367  0.03161200     0.37000
C1094       C  0.33768825  0.96705883  0.07898929     0.36900
N1095       N  0.20934721  0.91043629  0.02248635    -0.43400
N1096       N  0.35924561  0.97680303  0.08852854    -0.43400
C1097       C  0.29890687  0.07203215  0.92106936     0.00200
C1098       C  0.27686692  0.08470709  0.93889075    -0.11700
C1099       C  0.25937661  0.06722584  0.95733715     0.02400
C1100       C  0.26437089  0.03652273  0.95876273     0.00100
C1101       C  0.28646816  0.02376728  0.94112408    -0.11600
C1102       C  0.30338906  0.04114978  0.92193719     0.02300
H1103       H  0.27288385  0.10834964  0.93798312     0.15300
H1104       H  0.29034870  0.00011695  0.94220455     0.15300
C1105       C  0.32553063  0.02683763  0.90397975     0.37000
C1106       C  0.23712387  0.08144217  0.97523387     0.36900
N1107       N  0.34318152  0.01526563  0.88955170    -0.43400
N1108       N  0.21926386  0.09283587  0.98953939    -0.43400
C1109       C  0.54327566  0.03368291  0.22694799     0.00200
C1110       C  0.53664253  0.04103408  0.19724532    -0.11700
C1111       C  0.55376905  0.06130049  0.18127064     0.02400
C1112       C  0.57816970  0.07476112  0.19503181     0.00100
C1113       C  0.58546197  0.06645485  0.22423234    -0.11600
C1114       C  0.56855885  0.04619073  0.24012732     0.02300
H1115       H  0.51745295  0.03158706  0.18658305     0.15300
H1116       H  0.60467767  0.07588349  0.23490660     0.15300
C1117       C  0.57857778  0.03832729  0.26952353     0.37000
C1118       C  0.54494891  0.06870881  0.15138867     0.36900
N1119       N  0.58734928  0.03236589  0.29290501    -0.43400
N1120       N  0.53781228  0.07459564  0.12743602    -0.43400
C1121       C  0.46476862  0.96018529  0.22519518     0.00200
C1122       C  0.43456909  0.96656475  0.22614870    -0.11700
C1123       C  0.41450816  0.95046003  0.20916767     0.02400
C1124       C  0.42471459  0.92689149  0.19116660     0.00100
C1125       C  0.45519439  0.92084875  0.19019558    -0.11600
C1126       C  0.47518568  0.93737373  0.20684544     0.02300
H1127       H  0.42667309  0.98443484  0.24003600     0.15300
H1128       H  0.46348130  0.90289489  0.17667788     0.15300
C1129       C  0.50615096  0.92975673  0.20570261     0.37000
C1130       C  0.38367099  0.95838435  0.21144983     0.36900
N1131       N  0.53095083  0.92357707  0.20489289    -0.43400
N1132       N  0.35901678  0.96494629  0.21323274    -0.43400
C1133       C  0.53853399  0.77150262  0.95863480     0.00200
C1134       C  0.55322525  0.75538556  0.93654404    -0.11700
C1135       C  0.57261340  0.76897044  0.91672799     0.02400
C1136       C  0.57834062  0.79970125  0.91886589     0.00100
C1137       C  0.56297402  0.81608383  0.94020590    -0.11600
C1138       C  0.54318181  0.80252655  0.95981557     0.02300
H1139       H  0.54950972  0.73183872  0.93445321     0.15300
H1140       H  0.56671996  0.83966423  0.94193352     0.15300
C1141       C  0.52831650  0.82146411  0.98070629     0.37000
C1142       C  0.58560804  0.75053663  0.89411074     0.36900
N1143       N  0.51645660  0.83709866  0.99708616    -0.43400
N1144       N  0.59585297  0.73563079  0.87604170    -0.43400
C1145       C  0.46297708  0.77130657  0.03710813     0.00200
C1146       C  0.43281637  0.76468699  0.03699034    -0.11700
C1147       C  0.41294329  0.78067565  0.05451092     0.02400
C1148       C  0.42327298  0.80384725  0.07269145     0.00100
C1149       C  0.45362826  0.80990084  0.07330631    -0.11600
C1150       C  0.47344974  0.79391284  0.05572250     0.02300
H1151       H  0.42472625  0.74705574  0.02300525     0.15300
H1152       H  0.46192959  0.82707870  0.08771403     0.15300
C1153       C  0.50457422  0.80004392  0.05836897     0.37000
C1154       C  0.38240067  0.77171392  0.05452518     0.36900
N1155       N  0.52952983  0.80483343  0.06066168    -0.43400
N1156       N  0.35799152  0.76433582  0.05459487    -0.43400
C1157       C  0.53230684  0.22579968  0.03721576     0.00200
C1158       C  0.54636192  0.19938137  0.02859509    -0.11700
C1159       C  0.56548260  0.18410842  0.04795998     0.02400
C1160       C  0.57062847  0.19516102  0.07667367     0.00100
C1161       C  0.55599678  0.22110568  0.08547499    -0.11600
C1162       C  0.53693301  0.23630917  0.06627196     0.02300
H1163       H  0.54309296  0.19107219  0.00636071     0.15300
H1164       H  0.55952044  0.22963259  0.10761601     0.15300
C1165       C  0.52176539  0.26209860  0.07745112     0.37000
C1166       C  0.58086149  0.15828963  0.03721281     0.36900
N1167       N  0.50956571  0.28270765  0.08645586    -0.43400
N1168       N  0.59329351  0.13767728  0.02853525    -0.43400
C1169       C  0.45918300  0.22444686  0.95627764     0.00200
C1170       C  0.43030606  0.23477299  0.95140958    -0.11700
C1171       C  0.41072142  0.21935505  0.93327352     0.02400
C1172       C  0.41994539  0.19301891  0.91939337     0.00100
C1173       C  0.44894129  0.18287587  0.92363206    -0.11600
C1174       C  0.46849637  0.19813538  0.94214038     0.02300
H1175       H  0.42278890  0.25475149  0.96220989     0.15300
H1176       H  0.45622921  0.16286470  0.91265048     0.15300
C1177       C  0.49813294  0.18669543  0.94547520     0.37000
C1178       C  0.38161499  0.23167249  0.92830669     0.36900
N1179       N  0.52184203  0.17736909  0.94804007    -0.43400
N1180       N  0.35836083  0.24161134  0.92420217    -0.43400
C1181       C  0.11801199  0.73504662  0.22336416     0.00200
C1182       C  0.11344892  0.72618244  0.25298085    -0.11700
C1183       C  0.11155656  0.74702977  0.27570165     0.02400
C1184       C  0.11441905  0.77721155  0.26895503     0.00100
C1185       C  0.11557063  0.78635866  0.23936088    -0.11600
C1186       C  0.11684417  0.76568584  0.21647804     0.02300
H1187       H  0.11314369  0.70290333  0.25876861     0.15300
H1188       H  0.11741524  0.80973210  0.23423850     0.15300
C1189       C  0.11841918  0.77690460  0.18651768     0.37000
C1190       C  0.10888585  0.73695055  0.30597413     0.36900
N1191       N  0.11951779  0.78604555  0.16255827    -0.43400
N1192       N  0.10655538  0.72896674  0.33024322    -0.43400
C1193       C  0.23621616  0.72768859  0.11611975     0.00200
C1194       C  0.22963707  0.75568206  0.10402429    -0.11700
C1195       C  0.25101029  0.77785381  0.10322098     0.02400
C1196       C  0.27941288  0.77191733  0.11450954     0.00100
C1197       C  0.28663605  0.74350862  0.12455335    -0.11600
C1198       C  0.26543304  0.72137858  0.12554262     0.02300
H1199       H  0.20735589  0.76075674  0.09668913     0.15300
H1200       H  0.30848489  0.73918903  0.13356123     0.15300
C1201       C  0.27378027  0.69362221  0.13927229     0.37000
C1202       C  0.24252440  0.80717422  0.09353586     0.36900
N1203       N  0.28055248  0.67151491  0.15044196    -0.43400
N1204       N  0.23571199  0.83071186  0.08592773    -0.43400
C1205       C  0.28024403  0.61598841  0.26455000     0.00200
C1206       C  0.25107973  0.61455312  0.27450635    -0.11700
C1207       C  0.22740157  0.61711360  0.25466274     0.02400
C1208       C  0.23289099  0.62077417  0.22394059     0.00100
C1209       C  0.26232695  0.61909793  0.21395455    -0.11600
C1210       C  0.28589514  0.61724882  0.23397833     0.02300
H1211       H  0.24678163  0.61396083  0.29814514     0.15300
H1212       H  0.26721578  0.62123470  0.19054938     0.15300
C1213       C  0.31570451  0.61863849  0.22282241     0.37000
C1214       C  0.19805721  0.61780831  0.26700922     0.36900
N1215       N  0.33956997  0.61976028  0.21383920    -0.43400
N1216       N  0.17468955  0.61857572  0.27726463    -0.43400
C1217       C  0.88054288  0.27448739  0.23667255     0.00200
C1218       C  0.87309149  0.28230742  0.26584224    -0.11700
C1219       C  0.87147785  0.26102607  0.28821290     0.02400
C1220       C  0.87830354  0.23136397  0.28188123     0.00100
C1221       C  0.88872662  0.22383065  0.25370209    -0.11600
C1222       C  0.88978450  0.24510898  0.23098931     0.02300
H1223       H  0.86638966  0.30474417  0.27087361     0.15300
H1224       H  0.89421614  0.20098703  0.24893071     0.15300
C1225       C  0.89966389  0.23597274  0.20206698     0.37000
C1226       C  0.86120164  0.26987731  0.31714894     0.36900
N1227       N  0.90764587  0.22856653  0.17892142    -0.43400
N1228       N  0.85288540  0.27699252  0.34026925    -0.43400
C1229       C  0.76854709  0.27651357  0.12709330     0.00200
C1230       C  0.77734432  0.24671868  0.12573803    -0.11700
C1231       C  0.75667967  0.22404903  0.12396906     0.02400
C1232       C  0.72616080  0.23095102  0.12355684     0.00100
C1233       C  0.71752129  0.26082436  0.12180164    -0.11600
C1234       C  0.73824467  0.28353142  0.12352632     0.02300
H1235       H  0.80052064  0.24081844  0.12747602     0.15300
H1236       H  0.69429825  0.26666553  0.12061307     0.15300
C1237       C  0.72738917  0.31361370  0.12243037     0.37000
C1238       C  0.76779916  0.19405562  0.12387969     0.36900
N1239       N  0.71857226  0.33766344  0.12151306    -0.43400
N1240       N  0.77692445  0.17011211  0.12393756    -0.43400
C1241       C  0.77627333  0.38572420  0.24054927     0.00200
C1242       C  0.74850549  0.39813053  0.23363631    -0.11700
C1243       C  0.72581373  0.39855671  0.25463106     0.02400
C1244       C  0.73089725  0.38626966  0.28286884     0.00100
C1245       C  0.75927339  0.37672087  0.29072593    -0.11600
C1246       C  0.78201289  0.37643130  0.27004787     0.02300
H1247       H  0.74394915  0.40588623  0.21131253     0.15300
H1248       H  0.76314610  0.36751286  0.31265384     0.15300
C1249       C  0.80991343  0.36380043  0.27938771     0.37000
C1250       C  0.69694878  0.40912642  0.24588592     0.36900
N1251       N  0.83213568  0.35362788  0.28713488    -0.43400
N1252       N  0.67382169  0.41764409  0.23888073    -0.43400
C1253       C  0.88987276  0.71497048  0.76712289     0.00200
C1254       C  0.90421331  0.74161853  0.77348672    -0.11700
C1255       C  0.90339827  0.76511459  0.75303078     0.02400
C1256       C  0.88759153  0.76188916  0.72629639     0.00100
C1257       C  0.87611531  0.73424893  0.71881600    -0.11600
C1258       C  0.87755248  0.71071161  0.73878898     0.02300
H1259       H  0.91377400  0.74494468  0.79525052     0.15300
H1260       H  0.86475066  0.73145908  0.69783904     0.15300
C1261       C  0.86474157  0.68277327  0.73045530     0.37000
C1262       C  0.91662162  0.79292282  0.76093982     0.36900
N1263       N  0.85465393  0.66031392  0.72383559    -0.43400
N1264       N  0.92734826  0.81518880  0.76718730    -0.43400
C1265       C  0.78253614  0.73199867  0.88145723     0.00200
C1266       C  0.75674515  0.72787306  0.89804065    -0.11700
C1267       C  0.73511590  0.75018550  0.89919577     0.02400
C1268       C  0.73931336  0.77693950  0.88342043     0.00100
C1269       C  0.76673575  0.78215855  0.87004618    -0.11600
C1270       C  0.78821941  0.75998813  0.86889605     0.02300
H1271       H  0.75265005  0.70666372  0.90846984     0.15300
H1272       H  0.77069271  0.80283352  0.85852551     0.15300
C1273       C  0.81556079  0.76611469  0.85368941     0.37000
C1274       C  0.70878520  0.74497198  0.91633860     0.36900
N1275       N  0.83749576  0.77091767  0.84156013    -0.43400
N1276       N  0.68780651  0.74091490  0.93031158    -0.43400
C1277       C  0.77019750  0.61613066  0.77462167     0.00200
C1278       C  0.77803800  0.60449818  0.74701595    -0.11700
C1279       C  0.75759785  0.60414721  0.72367555     0.02400
C1280       C  0.72856725  0.61483691  0.72834145     0.00100
C1281       C  0.72029164  0.62378682  0.75696129    -0.11600
C1282       C  0.74093712  0.62511949  0.77980165     0.02300
H1283       H  0.80068664  0.59771738  0.74307822     0.15300
H1284       H  0.69817070  0.63204257  0.76108563     0.15300
C1285       C  0.73201531  0.63749352  0.80786132     0.37000
C1286       C  0.76745104  0.59399921  0.69506757     0.36900
N1287       N  0.72489199  0.64762064  0.83023433    -0.43400
N1288       N  0.77549526  0.58601639  0.67213581    -0.43400
C1289       C  0.08243846  0.70326116  0.06958206     0.00200
C1290       C  0.05807149  0.68753400  0.05886398    -0.11700
C1291       C  0.03696674  0.70103218  0.04041593     0.02400
C1292       C  0.03988795  0.73118771  0.03224034     0.00100
C1293       C  0.06481287  0.74659152  0.04206933    -0.11600
C1294       C  0.08606617  0.73303840  0.06022941     0.02300
H1295       H  0.05493946  0.66472927  0.06559660     0.15300
H1296       H  0.06783896  0.76945739  0.03546966     0.15300
C1297       C  0.11146643  0.75040571  0.06838545     0.37000
C1298       C  0.01202647  0.68347044  0.03142903     0.36900
N1299       N  0.13178220  0.76439330  0.07480691    -0.43400
N1300       N  0.99211498  0.66929535  0.02421523    -0.43400
C1301       C  0.95834341  0.72927364  0.96028891     0.00200
C1302       C  0.96988554  0.70394742  0.94641727    -0.11700
C1303       C  0.95220572  0.68614064  0.92842127     0.02400
C1304       C  0.92216103  0.69327841  0.92426673     0.00100
C1305       C  0.91040007  0.71818806  0.93862022    -0.11600
C1306       C  0.92814808  0.73624557  0.95634528     0.02300
H1307       H  0.99292634  0.69806524  0.94951331     0.15300
H1308       H  0.88732229  0.72392850  0.93550260     0.15300
C1309       C  0.91450875  0.76112387  0.97094617     0.37000
C1310       C  0.96518884  0.66011767  0.91534281     0.36900
N1311       N  0.90358294  0.78104795  0.98267875    -0.43400
N1312       N  0.97562180  0.63918825  0.90501243    -0.43400
C1313       C  0.11288347  0.22100666  0.73104332     0.00200
C1314       C  0.11914369  0.21177310  0.76002804    -0.11700
C1315       C  0.12141646  0.23220282  0.78304978     0.02400
C1316       C  0.11779049  0.26279567  0.77695665     0.00100
C1317       C  0.10889650  0.27152321  0.74823263    -0.11600
C1318       C  0.10654711  0.25092208  0.72533185     0.02300
H1319       H  0.12423397  0.18866853  0.76429683     0.15300
H1320       H  0.10530922  0.29471409  0.74314749     0.15300
C1321       C  0.09996161  0.26123492  0.69570738     0.37000
C1322       C  0.12954314  0.22100249  0.81197588     0.36900
N1323       N  0.09469312  0.26946035  0.67195329    -0.43400
N1324       N  0.13604305  0.21185709  0.83509069    -0.43400
C1325       C  0.23135715  0.27110570  0.88711335     0.00200
C1326       C  0.22379217  0.24182583  0.89451079    -0.11700
C1327       C  0.24520809  0.21939953  0.89508822     0.02400
C1328       C  0.27453795  0.22610012  0.88772184     0.00100
C1329       C  0.28280127  0.25552793  0.88364509    -0.11600
C1330       C  0.26170137  0.27816971  0.88395661     0.02300
H1331       H  0.20090154  0.23601619  0.89811629     0.15300
H1332       H  0.30560182  0.26063180  0.87852338     0.15300
C1333       C  0.27200891  0.30798771  0.87934040     0.37000
C1334       C  0.23629312  0.18934737  0.90095538     0.36900
N1335       N  0.28041543  0.33184302  0.87578466    -0.43400
N1336       N  0.22933119  0.16524246  0.90580268    -0.43400
C1337       C  0.22651803  0.37881726  0.77233494     0.00200
C1338       C  0.25631131  0.38071409  0.78089716    -0.11700
C1339       C  0.27888400  0.38148956  0.75981450     0.02400
C1340       C  0.27183809  0.37985240  0.72931946     0.00100
C1341       C  0.24199868  0.38184638  0.72082878    -0.11600
C1342       C  0.21942814  0.38158803  0.74188467     0.02300
H1343       H  0.26224187  0.38006381  0.80416849     0.15300
H1344       H  0.23603423  0.38196139  0.69755899     0.15300
C1345       C  0.18934764  0.38331838  0.73127320     0.37000
C1346       C  0.30893767  0.38325073  0.77035632     0.36900
N1347       N  0.16528929  0.38481189  0.72269849    -0.43400
N1348       N  0.33296447  0.38483128  0.77892587    -0.43400
C1349       C  0.95912109  0.53180629  0.76917549     0.00200
C1350       C  0.96974606  0.54569187  0.79479478    -0.11700
C1351       C  0.95163165  0.56419329  0.81167342     0.02400
C1352       C  0.92210269  0.56911362  0.80306125     0.00100
C1353       C  0.91116039  0.55463886  0.77783832    -0.11600
C1354       C  0.92937293  0.53619563  0.76083607     0.02300
H1355       H  0.99245430  0.54230028  0.80155491     0.15300
H1356       H  0.88842313  0.55817440  0.77105985     0.15300
C1357       C  0.91672784  0.52130043  0.73564308     0.37000
C1358       C  0.96358292  0.57688641  0.83834645     0.36900
N1359       N  0.90656821  0.50928562  0.71551480    -0.43400
N1360       N  0.97318964  0.58681332  0.85984259    -0.43400
C1361       C  0.07390381  0.41578373  0.80224813     0.00200
C1362       C  0.06656617  0.44324322  0.81456112    -0.11700
C1363       C  0.04860459  0.46352166  0.79913246     0.02400
C1364       C  0.03721177  0.45629588  0.77081318     0.00100
C1365       C  0.04409306  0.42860569  0.75885969    -0.11600
C1366       C  0.06207264  0.40842213  0.77412986     0.02300
H1367       H  0.07572708  0.44934282  0.83587889     0.15300
H1368       H  0.03498205  0.42242609  0.73758779     0.15300
C1369       C  0.06735927  0.38005426  0.76047767     0.37000
C1370       C  0.04370958  0.49208047  0.81238359     0.36900
N1371       N  0.07162719  0.35737848  0.74949095    -0.43400
N1372       N  0.04018533  0.51490876  0.82328781    -0.43400
C1373       C  0.95545194  0.27781552  0.04058969     0.00200
C1374       C  0.96337842  0.30610535  0.05067497    -0.11700
C1375       C  0.94515692  0.32206500  0.07006005     0.02400
C1376       C  0.91832259  0.30970912  0.07971665     0.00100
C1377       C  0.90997992  0.28194431  0.06879464    -0.11600
C1378       C  0.92797241  0.26611289  0.04938235     0.02300
H1379       H  0.98428357  0.31552144  0.04405504     0.15300
H1380       H  0.88906180  0.27245049  0.07542911     0.15300
C1381       C  0.91684057  0.23850063  0.03815501     0.37000
C1382       C  0.95523474  0.35027724  0.08074360     0.36900
N1383       N  0.90737838  0.21656086  0.02926685    -0.43400
N1384       N  0.96332620  0.37288297  0.08933564    -0.43400
C1385       C  0.03345701  0.27701598  0.96443981     0.00200
C1386       C  0.03990848  0.26362799  0.93725449    -0.11700
C1387       C  0.05905875  0.27681198  0.91699735     0.02400
C1388       C  0.07228725  0.30427986  0.92363173     0.00100
C1389       C  0.06521953  0.31819611  0.95041906    -0.11600
C1390       C  0.04627924  0.30470195  0.97095589     0.02300
H1391       H  0.02996241  0.24260446  0.93174760     0.15300
H1392       H  0.07556132  0.33901543  0.95592406     0.15300
C1393       C  0.04225885  0.31876417  0.99928944     0.37000
C1394       C  0.06442067  0.26161495  0.88941858     0.36900
N1395       N  0.03943092  0.33005292  0.02205315    -0.43400
N1396       N  0.06875872  0.24932461  0.86742172    -0.43400
C1397       C  0.08077528  0.58181942  0.19056322     0.00200
C1398       C  0.05263965  0.57688843  0.17856620    -0.11700
C1399       C  0.03248862  0.55842599  0.19307773     0.02400
C1400       C  0.04062779  0.54436744  0.21996193     0.00100
C1401       C  0.06911419  0.54839398  0.23119199    -0.11600
C1402       C  0.08914026  0.56678023  0.21688584     0.02300
H1403       H  0.04597257  0.58834162  0.15846338     0.15300
H1404       H  0.07589746  0.53690990  0.25123169     0.15300
C1405       C  0.11831872  0.56917291  0.22960524     0.37000
C1406       C  0.00321015  0.55569078  0.18075869     0.36900
N1407       N  0.14163815  0.57095399  0.23990974    -0.43400
N1408       N  0.97973504  0.55358413  0.17087347    -0.43400
C1409       C  0.96322561  0.46819038  0.22353417     0.00200
C1410       C  0.94068946  0.45551245  0.24049298    -0.11700
C1411       C  0.92053353  0.43593679  0.22817396     0.02400
C1412       C  0.92225877  0.42856346  0.19766387     0.00100
C1413       C  0.94446835  0.44152903  0.18043849    -0.11600
C1414       C  0.96504670  0.46088968  0.19302089     0.02300
H1415       H  0.93861519  0.46087635  0.26378977     0.15300
H1416       H  0.94631752  0.43589319  0.15719025     0.15300
C1417       C  0.98830574  0.47169437  0.17412836     0.37000
C1418       C  0.89835316  0.42410608  0.24786896     0.36900
N1419       N  0.00694643  0.48011082  0.15883490    -0.43400
N1420       N  0.88084673  0.41456222  0.26384488    -0.43400
C1421       C  0.19041553  0.57581731  0.07523482     0.00200
C1422       C  0.21672154  0.56210730  0.08475177    -0.11700
C1423       C  0.23208758  0.54250388  0.06665979     0.02400
C1424       C  0.22149137  0.53646823  0.03794422     0.00100
C1425       C  0.19422979  0.54872057  0.02895609    -0.11600
C1426       C  0.17857254  0.56820300  0.04737754     0.02300
H1427       H  0.22554713  0.56689082  0.10656341     0.15300
H1428       H  0.18552534  0.54372808  0.00716008     0.15300
C1429       C  0.15124037  0.58089013  0.03665517     0.37000
C1430       C  0.25809500  0.52818422  0.07868446     0.36900
N1431       N  0.12926268  0.59094278  0.02807781    -0.43400
N1432       N  0.27882795  0.51663325  0.08843522    -0.43400
C1433       C  0.22249249  0.45958829  0.96201901     0.00200
C1434       C  0.19755608  0.46959836  0.94616937    -0.11700
C1435       C  0.18152783  0.45040897  0.92792414     0.02400
C1436       C  0.19016006  0.42051206  0.92578474     0.00100
C1437       C  0.21453508  0.41039871  0.94238436    -0.11600
C1438       C  0.23061355  0.42952409  0.96041499     0.02300
H1439       H  0.19109765  0.49268414  0.94738147     0.15300
H1440       H  0.22124160  0.38738056  0.94103392     0.15300
C1441       C  0.25469727  0.41750003  0.97779601     0.37000
C1442       C  0.15772694  0.46232394  0.91012890     0.36900
N1443       N  0.27391002  0.40788503  0.99184410    -0.43400
N1444       N  0.13878395  0.47186790  0.89566988    -0.43400
C1445       C  0.76975098  0.53431059  0.95794092     0.00200
C1446       C  0.79089221  0.55319107  0.97024650    -0.11700
C1447       C  0.80732379  0.57229838  0.95233337     0.02400
C1448       C  0.80314290  0.57222125  0.92130935     0.00100
C1449       C  0.78244589  0.55271723  0.90900087    -0.11600
C1450       C  0.76563430  0.53403548  0.92700798     0.02300
H1451       H  0.79434414  0.55323401  0.99402972     0.15300
H1452       H  0.77893057  0.55245841  0.88523440     0.15300
C1453       C  0.74506789  0.51411594  0.91315169     0.37000
C1454       C  0.82870658  0.59120640  0.96636316     0.36900
N1455       N  0.72864583  0.49809842  0.90204227    -0.43400
N1456       N  0.84580403  0.60637662  0.97764702    -0.43400
C1457       C  0.80013850  0.42688240  0.08297470     0.00200
C1458       C  0.81516985  0.43680922  0.05768351    -0.11700
C1459       C  0.80090261  0.45416416  0.03601257     0.02400
C1460       C  0.77064356  0.46187117  0.03926939     0.00100
C1461       C  0.75588252  0.45243550  0.06483627    -0.11600
C1462       C  0.77017872  0.43554860  0.08663500     0.02300
H1463       H  0.83808655  0.43047986  0.05444478     0.15300
H1464       H  0.73294011  0.45865368  0.06815180     0.15300
C1465       C  0.75339842  0.42825402  0.11282671     0.37000
C1466       C  0.81787615  0.46288877  0.01041681     0.36900
N1467       N  0.73989420  0.42253019  0.13378940    -0.43400
N1468       N  0.83159112  0.46995977  0.99000930    -0.43400
C1469       C  0.87746310  0.00698090  0.00259060     0.00200
C1470       C  0.86300142  0.99484266  0.97790903    -0.11700
C1471       C  0.83214764  0.99415346  0.97591565     0.02400
C1472       C  0.81465036  0.00561618  0.99919782     0.00100
C1473       C  0.82908830  0.01816382  0.02369058    -0.11600
C1474       C  0.85998175  0.01897238  0.02561962     0.02300
H1475       H  0.87586880  0.98595285  0.95975062     0.15300
H1476       H  0.81619624  0.02703791  0.04183343     0.15300
C1477       C  0.87282195  0.03162593  0.05193714     0.37000
C1478       C  0.81940088  0.98227991  0.94918064     0.36900
N1479       N  0.88299193  0.04181256  0.07306293    -0.43400
N1480       N  0.80936359  0.97276429  0.92767474    -0.43400
C1481       C  0.98894645  0.88803598  0.00225889     0.00200
C1482       C  0.99989872  0.87215995  0.02683707    -0.11700
C1483       C  0.00078175  0.84115321  0.02719170     0.02400
C1484       C  0.99101792  0.82500814  0.00224185     0.00100
C1485       C  0.97919390  0.84083643  0.97803957    -0.11600
C1486       C  0.97802664  0.87186047  0.97779862     0.02300
H1487       H  0.00769209  0.88402803  0.04611769     0.15300
H1488       H  0.97143196  0.82896354  0.95875539     0.15300
C1489       C  0.96643149  0.88626267  0.95158740     0.37000
C1490       C  0.01092063  0.82670814  0.05397678     0.36900
N1491       N  0.95708626  0.89770582  0.93055257    -0.43400
N1492       N  0.01893023  0.81524542  0.07554299    -0.43400
C1493       C  0.99541600  0.00389339  0.88905303     0.00200
C1494       C  0.02255346  0.00901107  0.87495245    -0.11700
C1495       C  0.02528061  0.00708556  0.84407888     0.02400
C1496       C  0.00038734  0.00019049  0.82655014     0.00100
C1497       C  0.97324576  0.99525358  0.84064143    -0.11600
C1498       C  0.97050241  0.99718424  0.87145780     0.02300
H1499       H  0.04195046  0.01380729  0.88816439     0.15300
H1500       H  0.95384136  0.99042181  0.82745102     0.15300
C1501       C  0.94156026  0.99333057  0.88419430     0.37000
C1502       C  0.05418338  0.01084266  0.83125192     0.36900
N1503       N  0.91833616  0.99035167  0.89434835    -0.43400
N1504       N  0.07743050  0.01371712  0.82112370    -0.43400
C1505       C  0.99395263  0.11946224  0.00578971     0.00200
C1506       C  0.01823740  0.13433878  0.99352790    -0.11700
C1507       C  0.01966847  0.16532538  0.99289844     0.02400
C1508       C  0.99635546  0.18254985  0.00490252     0.00100
C1509       C  0.97223856  0.16759675  0.01743145    -0.11600
C1510       C  0.97064467  0.13663873  0.01772519     0.02300
H1511       H  0.03644569  0.12168994  0.98441744     0.15300
H1512       H  0.95405839  0.18010825  0.02662933     0.15300
C1513       C  0.94411583  0.12342284  0.02934406     0.37000
C1514       C  0.04571554  0.17845671  0.98014537     0.36900
N1515       N  0.92273617  0.11297104  0.03852127    -0.43400
N1516       N  0.06659565  0.18886136  0.96981877    -0.43400
C1517       C  0.10750490  0.99996465  0.00331826     0.00200
C1518       C  0.12194798  0.01109226  0.97815499    -0.11700
C1519       C  0.15277724  0.01089305  0.97597617     0.02400
C1520       C  0.17024817  0.99982086  0.99970356     0.00100
C1521       C  0.15574788  0.98834597  0.02475873    -0.11600
C1522       C  0.12484726  0.98821274  0.02673962     0.02300
H1523       H  0.10904668  0.01962879  0.95970363     0.15300
H1524       H  0.16857535  0.97969102  0.04319332     0.15300
C1525       C  0.11176777  0.97656911  0.05347240     0.37000
C1526       C  0.16547380  0.02126770  0.94854037     0.36900
N1527       N  0.10132416  0.96717152  0.07488135    -0.43400
N1528       N  0.17551958  0.02950771  0.92647085    -0.43400
C1529       C  0.99385618  0.00108240  0.11976309     0.00200
C1530       C  0.97992134  0.02416882  0.13518207    -0.11700
C1531       C  0.97973449  0.02512804  0.16621888     0.02400
C1532       C  0.99352794  0.00228205  0.18300175     0.00100
C1533       C  0.00753080  0.97921252  0.16753866    -0.11600
C1534       C  0.00790437  0.97839458  0.13648235     0.02300
H1535       H  0.96930559  0.04198368  0.12292260     0.15300
H1536       H  0.01818704  0.96139034  0.17973808     0.15300
C1537       C  0.02261583  0.95363161  0.12271151     0.37000
C1538       C  0.96579882  0.05046232  0.17972059     0.36900
N1539       N  0.03448166  0.93377589  0.11178838    -0.43400
N1540       N  0.95455198  0.07096575  0.19008044    -0.43400
C1541       C  0.00977478  0.61840524  0.49774577     0.00200
C1542       C  0.98660361  0.63358941  0.51182988    -0.11700
C1543       C  0.98637209  0.66444306  0.51415297     0.02400
C1544       C  0.01012600  0.68116518  0.50268353     0.00100
C1545       C  0.03320889  0.66601906  0.48837548    -0.11600
C1546       C  0.03320029  0.63515851  0.48562241     0.02300
H1547       H  0.96814773  0.62133218  0.52080451     0.15300
H1548       H  0.05157573  0.67831612  0.47927631     0.15300
C1549       C  0.05778057  0.62160651  0.47043279     0.37000
C1550       C  0.96071701  0.67806445  0.52737322     0.36900
N1551       N  0.07746591  0.61091420  0.45810344    -0.43400
N1552       N  0.94004496  0.68887091  0.53785261    -0.43400
C1553       C  0.89085163  0.50445012  0.49511330     0.00200
C1554       C  0.87601210  0.48264003  0.47879872    -0.11700
C1555       C  0.84507779  0.48128332  0.47783531     0.02400
C1556       C  0.82777310  0.50224864  0.49352121     0.00100
C1557       C  0.84269219  0.52389357  0.50999061    -0.11600
C1558       C  0.87359196  0.52533605  0.51082164     0.02300
H1559       H  0.88863071  0.46626303  0.46668306     0.15300
H1560       H  0.83021457  0.54014785  0.52230905     0.15300
C1561       C  0.88659734  0.54893608  0.52775584     0.37000
C1562       C  0.83220751  0.45771538  0.46075000     0.36900
N1563       N  0.89686054  0.56793525  0.54132235    -0.43400
N1564       N  0.82216807  0.43873389  0.44698650    -0.43400
C1565       C  0.00373033  0.50138559  0.61156094     0.00200
C1566       C  0.01226815  0.47510186  0.62602407    -0.11700
C1567       C  0.01092374  0.47221713  0.65695426     0.02400
C1568       C  0.00106524  0.49617118  0.67451445     0.00100
C1569       C  0.99263882  0.52254175  0.66002037    -0.11600
C1570       C  0.99397134  0.52540209  0.62905146     0.02300
H1571       H  0.01951195  0.45632070  0.61303152     0.15300
H1572       H  0.98538719  0.54133566  0.67297643     0.15300
C1573       C  0.98617477  0.55364889  0.61609354     0.37000
C1574       C  0.01863592  0.44383804  0.66957691     0.36900
N1575       N  0.98000323  0.57633572  0.60578360    -0.43400
N1576       N  0.02480146  0.42083222  0.67912028    -0.43400
C1577       C  0.12218511  0.50184369  0.49709588     0.00200
C1578       C  0.13728398  0.51813269  0.47532439    -0.11700
C1579       C  0.16821849  0.51868749  0.47408105     0.02400
C1580       C  0.18533828  0.50263575  0.49514943     0.00100
C1581       C  0.17021701  0.48653607  0.51711124    -0.11600
C1582       C  0.13923905  0.48598532  0.51832850     0.02300
H1583       H  0.12486092  0.53048108  0.45878934     0.15300
H1584       H  0.18261903  0.47422022  0.53367970     0.15300
C1585       C  0.12590985  0.46901035  0.54189042     0.37000
C1586       C  0.18131096  0.53562069  0.45036819     0.36900
N1587       N  0.11535207  0.45537485  0.56081440    -0.43400
N1588       N  0.19158569  0.54924771  0.43128178    -0.43400
C1589       C  0.00594373  0.38816201  0.49566373     0.00200
C1590       C  0.98655988  0.37348473  0.47637271    -0.11700
C1591       C  0.98425099  0.34258253  0.47625638     0.02400
C1592       C  0.00183371  0.32517412  0.49581176     0.00100
C1593       C  0.02164527  0.33989614  0.51465633    -0.11600
C1594       C  0.02382027  0.37076750  0.51487331     0.02300
H1595       H  0.97268443  0.38622174  0.46135721     0.15300
H1596       H  0.03551327  0.32729384  0.52977786     0.15300
C1597       C  0.04447012  0.38359130  0.53549472     0.37000
C1598       C  0.96318373  0.32991207  0.45597661     0.36900
N1599       N  0.06101666  0.39370410  0.55211430    -0.43400
N1600       N  0.94616115  0.32007132  0.43967523    -0.43400
C1601       C  0.00425028  0.50817825  0.31665464     0.00200
C1602       C  0.98209741  0.49292191  0.33216818    -0.11700
C1603       C  0.98145034  0.49194752  0.36320604     0.02400
C1604       C  0.00379243  0.50603492  0.37993564     0.00100
C1605       C  0.02564521  0.52173767  0.36450169    -0.11600
C1606       C  0.02601932  0.52315780  0.33344260     0.02300
H1607       H  0.96475639  0.48179947  0.32003074     0.15300
H1608       H  0.04280824  0.53301568  0.37675543     0.15300
C1609       C  0.04925407  0.54022074  0.31993802     0.37000
C1610       C  0.95695924  0.47691298  0.37693182     0.36900
N1611       N  0.06791896  0.55417942  0.30955885    -0.43400
N1612       N  0.93718337  0.46497481  0.38776722    -0.43400
C1613       C  0.50243477  0.88294265  0.49838613     0.00200
C1614       C  0.49379352  0.86814173  0.47253867    -0.11700
C1615       C  0.49472861  0.83719731  0.47074590     0.02400
C1616       C  0.50414440  0.82007424  0.49547541     0.00100
C1617       C  0.51339842  0.83503436  0.52104841    -0.11600
C1618       C  0.51258895  0.86591779  0.52279595     0.02300
H1619       H  0.48656572  0.88084377  0.45337152     0.15300
H1620       H  0.52074294  0.82256287  0.54023898     0.15300
C1621       C  0.52126017  0.87925158  0.55046961     0.37000
C1622       C  0.48674242  0.82411161  0.44278830     0.36900
N1623       N  0.52818516  0.88990802  0.57265467    -0.43400
N1624       N  0.48035701  0.81421131  0.42009746    -0.43400
C1625       C  0.61497099  0.99672703  0.50573901     0.00200
C1626       C  0.63047488  0.01964854  0.49176848    -0.11700
C1627       C  0.66136224  0.02050402  0.49189125     0.02400
C1628       C  0.67791608  0.99784450  0.50634326     0.00100
C1629       C  0.66233940  0.97518132  0.52078730    -0.11600
C1630       C  0.63139047  0.97430205  0.52052371     0.02300
H1631       H  0.61839166  0.03723969  0.48059932     0.15300
H1632       H  0.67434177  0.95758655  0.53198163     0.15300
C1633       C  0.61739582  0.94945700  0.53482961     0.37000
C1634       C  0.67495581  0.04529640  0.47708204     0.36900
N1635       N  0.60623896  0.92948910  0.54624253    -0.43400
N1636       N  0.68561768  0.06520471  0.46508740    -0.43400
C1637       C  0.49571905  0.99611700  0.61611020     0.00200
C1638       C  0.50888812  0.97217158  0.63125560    -0.11700
C1639       C  0.50910646  0.97048020  0.66228490     0.02400
C1640       C  0.49591595  0.99326086  0.67927630     0.00100
C1641       C  0.48241781  0.01701597  0.66409074    -0.11600
C1642       C  0.48222613  0.01871489  0.63307042     0.02300
H1643       H  0.51909272  0.95442603  0.61880104     0.15300
H1644       H  0.47227548  0.03482929  0.67648583     0.15300
C1645       C  0.46860692  0.04443814  0.61960837     0.37000
C1646       C  0.52267736  0.94470551  0.67567842     0.36900
N1647       N  0.45769116  0.06510408  0.60893952    -0.43400
N1648       N  0.53362424  0.92399831  0.68623362    -0.43400
C1649       C  0.50117264  0.11263257  0.49901136     0.00200
C1650       C  0.48810051  0.12782043  0.52275046    -0.11700
C1651       C  0.48720365  0.15874574  0.52358704     0.02400
C1652       C  0.49895451  0.17546498  0.49983609     0.00100
C1653       C  0.51228703  0.16027186  0.47624108    -0.11600
C1654       C  0.51364603  0.12935297  0.47563336     0.02300
H1655       H  0.47894988  0.11549793  0.54118241     0.15300
H1656       H  0.52158670  0.17255109  0.45790726     0.15300
C1657       C  0.52764548  0.11571003  0.45039921     0.37000
C1658       C  0.47540052  0.17236619  0.54990998     0.36900
N1659       N  0.53900642  0.10489915  0.43020352    -0.43400
N1660       N  0.46611163  0.18305526  0.57119958    -0.43400
C1661       C  0.32196099  0.00325575  0.49524177     0.00200
C1662       C  0.33724640  0.01888161  0.51724179    -0.11700
C1663       C  0.36816135  0.01866647  0.51873051     0.02400
C1664       C  0.38488562  0.00219595  0.49793366     0.00100
C1665       C  0.36964117  0.98716006  0.47551756    -0.11600
C1666       C  0.33876341  0.98773721  0.47374229     0.02300
H1667       H  0.32501898  0.03117694  0.53378140     0.15300
H1668       H  0.38191689  0.97497756  0.45892216     0.15300
C1669       C  0.32540667  0.97265936  0.44901376     0.37000
C1670       C  0.38173748  0.03542968  0.54219235     0.36900
N1671       N  0.31488524  0.96061407  0.42908795    -0.43400
N1672       N  0.39248985  0.04900533  0.56095815    -0.43400
C1673       C  0.50141774  0.99886154  0.38466768     0.00200
C1674       C  0.47806932  0.98542512  0.36927691    -0.11700
C1675       C  0.47699433  0.98501459  0.33821283     0.02400
C1676       C  0.49992540  0.99815358  0.32142932     0.00100
C1677       C  0.52293450  0.01199176  0.33691087    -0.11600
C1678       C  0.52403655  0.01243493  0.36789677     0.02300
H1679       H  0.46020243  0.97523496  0.38159289     0.15300
H1680       H  0.54072240  0.02247382  0.32471215     0.15300
C1681       C  0.54911705  0.02655724  0.38150487     0.37000
C1682       C  0.45161297  0.97147300  0.32458378     0.36900
N1683       N  0.56929887  0.03791618  0.39219641    -0.43400
N1684       N  0.43116546  0.96063008  0.31385133    -0.43400
C1685       C  0.49992945  0.67657431  0.99773439     0.00200
C1686       C  0.47430279  0.66197390  0.00729814    -0.11700
C1687       C  0.47240618  0.63102787  0.00735961     0.02400
C1688       C  0.49660698  0.61369200  0.99768142     0.00100
C1689       C  0.52226589  0.62827142  0.98821743    -0.11600
C1690       C  0.52424474  0.65919716  0.98833703     0.02300
H1691       H  0.45534464  0.67480342  0.01443927     0.15300
H1692       H  0.54124056  0.61541333  0.98114870     0.15300
C1693       C  0.55204233  0.67215294  0.97985555     0.37000
C1694       C  0.44493953  0.61791537  0.01663957     0.36900
N1695       N  0.57442525  0.68235201  0.97313865    -0.43400
N1696       N  0.42288563  0.60749880  0.02407722    -0.43400
C1697       C  0.61231791  0.49722144  0.99431809     0.00200
C1698       C  0.62748365  0.47220565  0.00527667    -0.11700
C1699       C  0.65845408  0.47074014  0.00567508     0.02400
C1700       C  0.67530279  0.49478291  0.99496936     0.00100
C1701       C  0.66013579  0.51966719  0.98372298    -0.11600
C1702       C  0.62918418  0.52119749  0.98342329     0.02300
H1703       H  0.61508942  0.45344273  0.01345018     0.15300
H1704       H  0.67251621  0.53848030  0.97565094     0.15300
C1705       C  0.61562127  0.54822355  0.97278047     0.37000
C1706       C  0.67209346  0.44384829  0.01649840     0.36900
N1707       N  0.60483652  0.56993993  0.96431826    -0.43400
N1708       N  0.68292108  0.42224932  0.02519706    -0.43400
C1709       C  0.49802071  0.49957447  0.88030053     0.00200
C1710       C  0.47506026  0.48615719  0.86440325    -0.11700
C1711       C  0.47478500  0.48557230  0.83329003     0.02400
C1712       C  0.49816493  0.49850545  0.81685257     0.00100
C1713       C  0.52102069  0.51214458  0.83280098    -0.11600
C1714       C  0.52125040  0.51273961  0.86393900     0.02300
H1715       H  0.45689182  0.47618378  0.87634471     0.15300
H1716       H  0.53926036  0.52205279  0.82093278     0.15300
C1717       C  0.54623881  0.52632507  0.87824924     0.37000
C1718       C  0.44962970  0.47201131  0.81926879     0.36900
N1719       N  0.56629532  0.53718764  0.88967840    -0.43400
N1720       N  0.42931276  0.46110698  0.80835810    -0.43400
C1721       C  0.50174394  0.49966385  0.11226238     0.00200
C1722       C  0.52132907  0.48030260  0.12712111    -0.11700
C1723       C  0.52333860  0.47952920  0.15819486     0.02400
C1724       C  0.50495458  0.49810635  0.17551223     0.00100
C1725       C  0.48604421  0.51800642  0.16054865    -0.11600
C1726       C  0.48446334  0.51918926  0.12959178     0.02300
H1727       H  0.53531898  0.46556339  0.11442962     0.15300
H1728       H  0.47210751  0.53295730  0.17303851     0.15300
C1729       C  0.46501157  0.54112970  0.11662062     0.37000
C1730       C  0.54497498  0.45979553  0.17123785     0.36900
N1731       N  0.44949623  0.55886966  0.10639681    -0.43400
N1732       N  0.56252573  0.44407896  0.18147903    -0.43400
C1733       C  0.38052545  0.49792498  0.99804413     0.00200
C1734       C  0.36530202  0.52094929  0.01237238    -0.11700
C1735       C  0.33428699  0.52217910  0.01310162     0.02400
C1736       C  0.31728774  0.49985095  0.99920203     0.00100
C1737       C  0.33259358  0.47668697  0.98514000    -0.11600
C1738       C  0.36358557  0.47541678  0.98456121     0.02300
H1739       H  0.37769921  0.53846071  0.02287653     0.15300
H1740       H  0.32032291  0.45905927  0.97470569     0.15300
C1741       C  0.37714450  0.45009752  0.97065984     0.37000
C1742       C  0.32096078  0.54711575  0.02790626     0.36900
N1743       N  0.38792251  0.42971948  0.95958496    -0.43400
N1744       N  0.31052874  0.56717585  0.03986060    -0.43400
C1745       C  0.49521814  0.38307502  0.99798161     0.00200
C1746       C  0.47074498  0.36824692  0.98606500    -0.11700
C1747       C  0.46929642  0.33724252  0.98574656     0.02400
C1748       C  0.49295965  0.32003381  0.99727997     0.00100
C1749       C  0.51720512  0.33492463  0.00959878    -0.11600
C1750       C  0.51858178  0.36586262  0.01008021     0.02300
H1751       H  0.45235692  0.38094207  0.97716196     0.15300
H1752       H  0.53564024  0.32234693  0.01855784     0.15300
C1753       C  0.54481050  0.37902458  0.02242660     0.37000
C1754       C  0.44268916  0.32411992  0.97429171     0.36900
N1755       N  0.56586039  0.38946257  0.03235659    -0.43400
N1756       N  0.42109713  0.31413105  0.96510936    -0.43400
loop_ 
_geom_bond_atom_site_label_1 
_geom_bond_atom_site_label_2 
_geom_bond_distance 
_geom_bond_site_symmetry_2 
_ccdc_geom_bond_type 
Zn1           O5   1.971   1_554  S
Zn1           O6   2.032       .  S
Zn1          O10   2.021       .  S
Zn1          O17   2.029       .  S
Zn2           O5   1.965       .  S
Zn2           O7   2.023       .  S
Zn2           O9   2.027       .  S
Zn2          O13   2.023       .  S
Zn3           O5   1.972       .  S
Zn3           O8   2.039       .  S
Zn3          O11   2.051       .  S
Zn3          O14   2.040       .  S
Zn4           O5   1.969   1_554  S
Zn4          O12   2.045       .  S
Zn4          O15   2.033       .  S
Zn4          O16   2.029       .  S
O6           C18   1.275   1_554  A
O7           C19   1.274       .  A
O8           C20   1.277       .  A
O9           C18   1.274       .  A
O10          C20   1.274   1_554  A
O11          C19   1.279       .  A
O12          C21   1.277   1_554  A
O13          C22   1.275       .  A
O14          C21   1.276       .  A
O15          C22   1.275   1_554  A
O16          C23   1.275       .  A
O17          C23   1.275       .  A
C18        C1697   1.498       .  S
C19        C1709   1.502       .  S
C20        C1745   1.497       .  S
C21        C1733   1.504       .  S
C22        C1688   1.494       .  S
C23        C1721   1.500       .  S
Zn24         O28   1.957   1_545  S
Zn24         O29   2.021       .  S
Zn24         O33   2.007       .  S
Zn24         O40   2.013       .  S
Zn25         O28   1.956       .  S
Zn25         O30   2.007       .  S
Zn25         O32   2.022       .  S
Zn25         O36   2.013       .  S
Zn26         O28   1.968       .  S
Zn26         O31   2.038       .  S
Zn26         O34   2.036       .  S
Zn26         O37   2.028       .  S
Zn27         O28   1.959   1_545  S
Zn27         O35   2.021       .  S
Zn27         O38   2.026       .  S
Zn27         O39   2.016       .  S
O29          C41   1.273   1_545  A
O30          C42   1.273       .  A
O31          C43   1.277   1_565  A
O32          C41   1.274       .  A
O33          C43   1.272       .  A
O34          C42   1.277       .  A
O35          C44   1.274   1_545  A
O36          C45   1.272       .  A
O37          C44   1.275       .  A
O38          C45   1.276   1_545  A
O39          C46   1.273       .  A
O40          C46   1.274       .  A
C41        C1637   1.496       .  S
C42        C1613   1.491       .  S
C43        C1664   1.497       .  S
C44        C1673   1.497       .  S
C45        C1625   1.494       .  S
C46        C1649   1.491       .  S
Zn47         O51   1.964   1_655  S
Zn47         O52   2.020       .  S
Zn47         O56   2.030       .  S
Zn47         O63   2.029       .  S
Zn48         O51   1.967       .  S
Zn48         O53   2.034       .  S
Zn48         O55   2.023       .  S
Zn48         O59   2.035       .  S
Zn49         O51   1.963       .  S
Zn49         O54   2.029       .  S
Zn49         O57   2.030       .  S
Zn49         O60   2.021       .  S
Zn50         O51   1.965   1_655  S
Zn50         O58   2.024       .  S
Zn50         O61   2.020       .  S
Zn50         O62   2.026       .  S
O52          C64   1.275   1_655  A
O53          C65   1.277       .  A
O54          C66   1.275       .  A
O55          C64   1.274       .  A
O56          C66   1.275   1_655  A
O57          C65   1.274       .  A
O58          C67   1.275   1_655  A
O59          C68   1.277       .  A
O60          C67   1.274       .  A
O61          C68   1.274   1_655  A
O62          C69   1.275       .  A
O63          C69   1.274       .  A
C64        C1541   1.495       .  S
C65        C1577   1.502       .  S
C66        C1565   1.495       .  S
C67        C1589   1.498       .  S
C68        C1604   1.499       .  S
C69        C1553   1.500       .  S
Zn70         O74   1.961   1_566  S
Zn70         O75   2.017       .  S
Zn70         O79   2.027       .  S
Zn70         O86   2.016       .  S
Zn71         O74   1.966       .  S
Zn71         O76   2.030       .  S
Zn71         O78   2.031       .  S
Zn71         O82   2.030       .  S
Zn72         O74   1.965   1_465  S
Zn72         O77   2.031       .  S
Zn72         O80   2.019       .  S
Zn72         O83   2.025       .  S
Zn73         O74   1.967   1_456  S
Zn73         O81   2.019       .  S
Zn73         O84   2.033       .  S
Zn73         O85   2.026       .  S
O75          C87   1.275   1_566  A
O76          C88   1.276       .  A
O77          C89   1.275   1_455  A
O78          C87   1.275       .  A
O79          C89   1.274   1_556  A
O80          C88   1.274   1_465  A
O81          C90   1.275   1_556  A
O82          C91   1.275       .  A
O83          C90   1.274   1_565  A
O84          C91   1.276   1_456  A
O85          C92   1.275   1_455  A
O86          C92   1.274   1_565  A
C87        C1469   1.495       .  S
C88        C1529   1.497       .  S
C89        C1481   1.497       .  S
C90        C1517   1.491   1_545  S
C91        C1505   1.498       .  S
C92        C1493   1.487       .  S
C93        C1445   1.474       .  S
C93          N94   1.359       .  A
C93          N98   1.354       .  A
N94          C95   1.361       .  A
C95        C1700   1.498       .  S
C95          N96   1.363   1_556  A
N96          C97   1.364       .  A
C97        C1460   1.493       .  S
C97          N98   1.355   1_554  A
C99        C1424   1.482       .  S
C99         N100   1.361       .  A
C99         N104   1.355   1_554  A
N100        C101   1.359   1_554  A
C101       C1736   1.507       .  S
C101        N102   1.364       .  A
N102        C103   1.364       .  A
C103       C1433   1.480       .  S
C103        N104   1.355       .  A
C105       C1409   1.491       .  S
C105        N106   1.362       .  A
C105        N110   1.355   1_655  A
N106        C107   1.360   1_655  A
C107       C1601   1.501       .  S
C107        N108   1.357       .  A
N108        C109   1.360       .  A
C109       C1400   1.476       .  S
C109        N110   1.355       .  A
C111       C1373   1.488       .  S
C111        N112   1.362       .  A
C111        N116   1.359       .  A
N112        C113   1.361       .  A
C113       C1508   1.501       .  S
C113        N114   1.358   1_654  A
N114        C115   1.360       .  A
C115       C1385   1.485       .  S
C115        N116   1.357   1_456  A
C117       C1349   1.482       .  S
C117        N118   1.356       .  A
C117        N122   1.361       .  A
N118        C119   1.355   1_655  A
C119       C1364   1.488       .  S
C119        N120   1.363       .  A
N120        C121   1.363   1_455  A
C121       C1568   1.498   1_655  S
C121        N122   1.363       .  A
Zn123       O127   1.982       .  S
Zn123       O128   2.063       .  S
Zn123       O132   2.068       .  S
Zn123       O139   2.068       .  S
Zn124       O127   1.952       .  S
Zn124       O129   2.015       .  S
Zn124       O131   1.977       .  S
Zn124       O135   2.021       .  S
Zn125       O127   1.941       .  S
Zn125       O130   1.968       .  S
Zn125       O133   2.000       .  S
Zn125       O136   1.999       .  S
Zn126       O127   1.941       .  S
Zn126       O134   2.007       .  S
Zn126       O137   1.992       .  S
Zn126       O138   1.969       .  S
O128        C140   1.280       .  A
O129        C141   1.271       .  A
O130        C142   1.268       .  A
O131        C140   1.271       .  A
O132        C142   1.280       .  A
O133        C141   1.271       .  A
O134        C143   1.272       .  A
O135        C144   1.273       .  A
O136        C143   1.270       .  A
O137        C144   1.269       .  A
O138        C145   1.269       .  A
O139        C145   1.280       .  A
C140       C1388   1.484       .  S
C141       C1316   1.490       .  S
C142       C1361   1.487       .  S
C143       C1337   1.488       .  S
C144       C1325   1.490       .  S
C145       C1436   1.480       .  S
C146       C1301   1.486       .  S
C146        N147   1.362       .  A
C146        N151   1.355       .  A
N147        C148   1.363   1_556  A
C148       C1484   1.497       .  S
C148        N149   1.361   1_655  A
N149        C150   1.361       .  A
C150       C1292   1.491       .  S
C150        N151   1.354   1_454  A
Zn152       O156   1.918       .  S
Zn152       O157   1.962       .  S
Zn152       O161   1.976       .  S
Zn152       O168   1.979       .  S
Zn153       O156   1.968       .  S
Zn153       O158   2.027       .  S
Zn153       O160   2.042       .  S
Zn153       O164   2.034       .  S
Zn154       O156   1.962       .  S
Zn154       O159   2.036       .  S
Zn154       O162   2.020       .  S
Zn154       O165   2.020       .  S
Zn155       O156   1.957       .  S
Zn155       O163   2.014       .  S
Zn155       O166   2.009       .  S
Zn155       O167   2.015       .  S
O157        C169   1.267       .  A
O158        C170   1.276       .  A
O159        C171   1.272       .  A
O160        C169   1.273       .  A
O161        C171   1.268       .  A
O162        C170   1.275       .  A
O163        C172   1.275       .  A
O164        C173   1.277       .  A
O165        C172   1.276       .  A
O166        C173   1.273       .  A
O167        C174   1.269       .  A
O168        C174   1.268       .  A
C169       C1253   1.468       .  S
C170       C1304   1.482       .  S
C171       C1265   1.474       .  S
C172       C1448   1.482       .  S
C173       C1352   1.481       .  S
C174       C1277   1.463       .  S
Zn175       O179   1.928       .  S
Zn175       O180   1.989       .  S
Zn175       O184   1.983       .  S
Zn175       O191   1.945       .  S
Zn176       O179   1.945       .  S
Zn176       O181   1.997       .  S
Zn176       O183   2.025       .  S
Zn176       O187   1.972       .  S
Zn177       O179   1.946       .  S
Zn177       O182   2.005       .  S
Zn177       O185   1.997       .  S
Zn177       O188   1.974       .  S
Zn178       O179   1.982       .  S
Zn178       O186   2.073       .  S
Zn178       O189   2.060       .  S
Zn178       O190   2.070       .  S
O180        C192   1.269       .  A
O181        C193   1.272       .  A
O182        C194   1.271       .  A
O183        C192   1.272       .  A
O184        C194   1.268       .  A
O185        C193   1.270       .  A
O186        C195   1.281       .  A
O187        C196   1.271       .  A
O188        C195   1.269       .  A
O189        C196   1.280       .  A
O190        C197   1.280       .  A
O191        C197   1.265       .  A
C192       C1217   1.486       .  S
C193       C1229   1.486       .  S
C194       C1241   1.480       .  S
C195       C1457   1.495       .  S
C196       C1376   1.484       .  S
C197       C1412   1.488       .  S
Zn198       O202   1.944       .  S
Zn198       O203   2.012       .  S
Zn198       O207   2.020       .  S
Zn198       O214   1.968       .  S
Zn199       O202   1.942       .  S
Zn199       O204   2.002       .  S
Zn199       O206   2.005       .  S
Zn199       O210   1.982       .  S
Zn200       O202   1.934       .  S
Zn200       O205   2.000       .  S
Zn200       O208   1.984       .  S
Zn200       O211   1.961       .  S
Zn201       O202   1.978       .  S
Zn201       O209   2.057       .  S
Zn201       O212   2.056       .  S
Zn201       O213   2.048       .  S
O203        C215   1.273       .  A
O204        C216   1.272       .  A
O205        C217   1.270       .  A
O206        C215   1.271       .  A
O207        C217   1.272       .  A
O208        C216   1.269       .  A
O209        C218   1.277       .  A
O210        C219   1.270       .  A
O211        C218   1.268       .  A
O212        C219   1.280       .  A
O213        C220   1.278       .  A
O214        C220   1.270       .  A
C215       C1181   1.491       .  S
C216       C1193   1.476       .  S
C217       C1208   1.492       .  S
C218       C1421   1.482       .  S
C219       C1289   1.492       .  S
C220       C1397   1.479       .  S
C221       C1157   1.487       .  S
C221        N222   1.360       .  A
C221        N226   1.357   1_554  A
N222        C223   1.360   1_554  A
C223       C1748   1.498       .  S
C223        N224   1.361       .  A
N224        C225   1.363       .  A
C225       C1169   1.484       .  S
C225        N226   1.359       .  A
C227       C1133   1.498       .  S
C227        N228   1.356       .  A
C227        N232   1.363       .  A
N228        C229   1.356   1_556  A
C229       C1145   1.476       .  S
C229        N230   1.359       .  A
N230        C231   1.360   1_554  A
C231       C1685   1.495       .  S
C231        N232   1.361       .  A
C233       C1121   1.467       .  S
C233        N234   1.353       .  A
C233        N238   1.357       .  A
N234        C235   1.355   1_565  A
C235       C1109   1.488       .  S
C235        N236   1.361       .  A
N236        C237   1.363   1_545  A
C237       C1676   1.500       .  S
C237        N238   1.359       .  A
C239       C1085   1.478       .  S
C239        N240   1.361       .  A
C239        N244   1.354   1_554  A
N240        C241   1.362   1_554  A
C241       C1520   1.496       .  S
C241        N242   1.360   1_565  A
N242        C243   1.357       .  A
C243       C1100   1.471       .  S
C243        N244   1.352   1_545  A
C245       C1073   1.484       .  S
C245        N246   1.359       .  A
C245        N250   1.357   1_565  A
N246        C247   1.357   1_565  A
C247       C1472   1.495       .  S
C247        N248   1.358   1_556  A
N248        C249   1.361       .  A
C249       C1061   1.484       .  S
C249        N250   1.357   1_554  A
Zn251       O255   1.934       .  S
Zn251       O256   1.985       .  S
Zn251       O260   1.959       .  S
Zn251       O267   1.984       .  S
Zn252       O255   1.943       .  S
Zn252       O257   1.967       .  S
Zn252       O259   2.017       .  S
Zn252       O263   2.010       .  S
Zn253       O255   1.977       .  S
Zn253       O258   2.062       .  S
Zn253       O261   2.055       .  S
Zn253       O264   2.064       .  S
Zn254       O255   1.940       .  S
Zn254       O262   1.972       .  S
Zn254       O265   2.007       .  S
Zn254       O266   1.991       .  S
O256        C268   1.267       .  A
O257        C269   1.271       .  A
O258        C270   1.278       .  A
O259        C268   1.272       .  A
O260        C270   1.267       .  A
O261        C269   1.279       .  A
O262        C271   1.269       .  A
O263        C272   1.272       .  A
O264        C271   1.281       .  A
O265        C272   1.271       .  A
O266        C273   1.269       .  A
O267        C273   1.269       .  A
C268       C1025   1.488       .  S
C269       C1076   1.479       .  S
C270       C1049   1.484       .  S
C271       C1136   1.492       .  S
C272       C1268   1.482       .  S
C273       C1040   1.482       .  S
C274       C1052   1.484       .  S
C274        N275   1.361       .  A
C274        N279   1.354       .  A
N275        C276   1.359       .  A
C276       C1640   1.498       .  S
C276        N277   1.360   1_565  A
N277        C278   1.359       .  A
C278       C1016   1.476       .  S
C278        N279   1.355   1_545  A
Zn280       O284   1.965       .  S
Zn280       O285   2.019       .  S
Zn280       O289   2.023       .  S
Zn280       O296   2.038       .  S
Zn281       O284   1.962       .  S
Zn281       O286   2.015       .  S
Zn281       O288   2.003       .  S
Zn281       O292   2.036       .  S
Zn282       O284   1.952       .  S
Zn282       O287   2.015       .  S
Zn282       O290   2.003       .  S
Zn282       O293   2.019       .  S
Zn283       O284   1.917       .  S
Zn283       O291   1.981       .  S
Zn283       O294   1.976       .  S
Zn283       O295   1.963       .  S
O285        C297   1.275       .  A
O286        C298   1.274       .  A
O287        C299   1.275       .  A
O288        C297   1.274       .  A
O289        C299   1.275       .  A
O290        C298   1.274       .  A
O291        C300   1.268       .  A
O292        C301   1.272       .  A
O293        C300   1.269       .  A
O294        C301   1.269       .  A
O295        C302   1.267       .  A
O296        C302   1.274       .  A
C297       C1013   1.475       .  S
C298       C1097   1.476       .  S
C299       C1172   1.475       .  S
C300       C1328   1.464       .  S
C301        C989   1.476       .  S
C302       C1001   1.470       .  S
Zn303       O307   1.964       .  S
Zn303       O308   2.015       .  S
Zn303       O312   2.019       .  S
Zn303       O319   2.039       .  S
Zn304       O307   1.961       .  S
Zn304       O309   2.017       .  S
Zn304       O311   2.001       .  S
Zn304       O315   2.047       .  S
Zn305       O307   1.956       .  S
Zn305       O310   2.023       .  S
Zn305       O313   2.007       .  S
Zn305       O316   2.016       .  S
Zn306       O307   1.913       .  S
Zn306       O314   1.964       .  S
Zn306       O317   1.974       .  S
Zn306       O318   1.960       .  S
O308        C320   1.276       .  A
O309        C321   1.275       .  A
O310        C322   1.276       .  A
O311        C320   1.273       .  A
O312        C322   1.275       .  A
O313        C321   1.274       .  A
O314        C323   1.267       .  A
O315        C324   1.273       .  A
O316        C323   1.270       .  A
O317        C324   1.267       .  A
O318        C325   1.267       .  A
O319        C325   1.272       .  A
C320       C1124   1.486       .  S
C321       C1088   1.472       .  S
C322       C1148   1.483       .  S
C323       C1196   1.461       .  S
C324        C965   1.474       .  S
C325        C977   1.473       .  S
Zn326       O330   1.974       .  S
Zn326       O331   2.042       .  S
Zn326       O335   2.061       .  S
Zn326       O342   2.057       .  S
Zn327       O330   1.947       .  S
Zn327       O332   1.993       .  S
Zn327       O334   1.984       .  S
Zn327       O338   2.026       .  S
Zn328       O330   1.946       .  S
Zn328       O333   1.984       .  S
Zn328       O336   2.001       .  S
Zn328       O339   2.000       .  S
Zn329       O330   1.935       .  S
Zn329       O337   1.992       .  S
Zn329       O340   1.995       .  S
Zn329       O341   1.964       .  S
O331        C343   1.277       .  A
O332        C344   1.270       .  A
O333        C345   1.271       .  A
O334        C343   1.272       .  A
O335        C345   1.279       .  A
O336        C344   1.272       .  A
O337        C346   1.269       .  A
O338        C347   1.272       .  A
O339        C346   1.271       .  A
O340        C347   1.270       .  A
O341        C348   1.270       .  A
O342        C348   1.279       .  A
C343       C1064   1.480       .  S
C344       C1232   1.486       .  S
C345       C1160   1.483       .  S
C346        C953   1.482       .  S
C347        C941   1.489       .  S
C348       C1112   1.485       .  S
C349        C917   1.476       .  S
C349        N350   1.357       .  A
C349        N354   1.352       .  A
N350        C351   1.362       .  A
C351       C1724   1.501       .  S
C351        N352   1.362       .  A
N352        C353   1.361       .  A
C353        C929   1.475       .  S
C353        N354   1.353       .  A
C355        C908   1.473       .  S
C355        N356   1.352       .  A
C355        N360   1.359       .  A
N356        C357   1.353       .  A
C357        C893   1.488       .  S
C357        N358   1.362       .  A
N358        C359   1.364       .  A
C359       C1556   1.503       .  S
C359        N360   1.360       .  A
Zn361       O365   1.960       .  S
Zn361       O366   2.001       .  S
Zn361       O370   2.022       .  S
Zn361       O377   1.999       .  S
Zn362       O365   1.945       .  S
Zn362       O367   2.003       .  S
Zn362       O369   2.010       .  S
Zn362       O373   1.990       .  S
Zn363       O365   1.923       .  S
Zn363       O368   1.965       .  S
Zn363       O371   1.992       .  S
Zn363       O374   1.982       .  S
Zn364       O365   1.961       .  S
Zn364       O372   2.033       .  S
Zn364       O375   2.027       .  S
Zn364       O376   2.009       .  S
O366        C378   1.272       .  A
O367        C379   1.269       .  A
O368        C380   1.267       .  A
O369        C378   1.273       .  A
O370        C380   1.270       .  A
O371        C379   1.270       .  A
O372        C381   1.272       .  A
O373        C382   1.272       .  A
O374        C381   1.269       .  A
O375        C382   1.276       .  A
O376        C383   1.274       .  A
O377        C383   1.272       .  A
C378        C932   1.474       .  S
C379        C956   1.463       .  S
C380       C1244   1.464       .  S
C381        C869   1.468       .  S
C382        C881   1.472       .  S
C383        C905   1.473       .  S
C384        C884   1.477       .  S
C384        N385   1.358       .  A
C384        N389   1.357       .  A
N385        C386   1.358       .  A
C386       C1652   1.492       .  S
C386        N387   1.358       .  A
N387        C388   1.359       .  A
C388        C857   1.488       .  S
C388        N389   1.357       .  A
C390        C845   1.481       .  S
C390        N391   1.355       .  A
C390        N395   1.360       .  A
N391        C392   1.356       .  A
C392        C833   1.487       .  S
C392        N393   1.362       .  A
N393        C394   1.363       .  A
C394       C1616   1.497       .  S
C394        N395   1.359       .  A
Zn396       O400   1.917       .  S
Zn396       O401   1.972       .  S
Zn396       O405   1.971       .  S
Zn396       O412   1.970       .  S
Zn397       O400   1.962       .  S
Zn397       O402   2.013       .  S
Zn397       O404   2.031       .  S
Zn397       O408   2.015       .  S
Zn398       O400   1.961       .  S
Zn398       O403   2.043       .  S
Zn398       O406   2.028       .  S
Zn398       O409   2.014       .  S
Zn399       O400   1.964       .  S
Zn399       O407   2.010       .  S
Zn399       O410   2.011       .  S
Zn399       O411   2.037       .  S
O401        C413   1.268       .  A
O402        C414   1.274       .  A
O403        C415   1.273       .  A
O404        C413   1.272       .  A
O405        C415   1.267       .  A
O406        C414   1.275       .  A
O407        C416   1.275       .  A
O408        C417   1.274       .  A
O409        C416   1.276       .  A
O410        C417   1.274       .  A
O411        C418   1.272       .  A
O412        C418   1.268       .  A
C413        C809   1.470       .  S
C414        C821   1.478       .  S
C415       C1205   1.466       .  S
C416        C920   1.477       .  S
C417        C848   1.474       .  S
C418        C980   1.473       .  S
C419        C824   1.487       .  S
C419        N420   1.360       .  A
C419        N424   1.355       .  A
N420        C421   1.360       .  A
C421       C1580   1.504       .  S
C421        N422   1.363       .  A
N422        C423   1.363       .  A
C423        C797   1.487       .  S
C423        N424   1.355       .  A
C425        C773   1.490       .  S
C425        N426   1.359       .  A
C425        N430   1.366       .  A
N426        C427   1.357       .  A
C427        C785   1.495       .  S
C427        N428   1.360       .  A
N428        C429   1.358       .  A
C429       C1712   1.506       .  S
C429        N430   1.364       .  A
Zn431       O435   1.980       .  S
Zn431       O436   2.069       .  S
Zn431       O440   2.056       .  S
Zn431       O447   2.057       .  S
Zn432       O435   1.946       .  S
Zn432       O437   2.015       .  S
Zn432       O439   1.986       .  S
Zn432       O443   2.020       .  S
Zn433       O435   1.942       .  S
Zn433       O438   1.972       .  S
Zn433       O441   2.001       .  S
Zn433       O444   2.006       .  S
Zn434       O435   1.939       .  S
Zn434       O442   2.001       .  S
Zn434       O445   1.988       .  S
Zn434       O446   1.963       .  S
O436        C448   1.281       .  A
O437        C449   1.273       .  A
O438        C450   1.270       .  A
O439        C448   1.271       .  A
O440        C450   1.279       .  A
O441        C449   1.272       .  A
O442        C451   1.270       .  A
O443        C452   1.273       .  A
O444        C451   1.270       .  A
O445        C452   1.270       .  A
O446        C453   1.269       .  A
O447        C453   1.278       .  A
C448        C788   1.498       .  S
C449       C1340   1.489       .  S
C450        C800   1.483       .  S
C451        C761   1.489       .  S
C452       C1004   1.477       .  S
C453        C860   1.490       .  S
Zn454       O458   1.979       .  S
Zn454       O459   2.064       .  S
Zn454       O463   2.088       .  S
Zn454       O470   2.067       .  S
Zn455       O458   1.946       .  S
Zn455       O460   1.996       .  S
Zn455       O462   1.967       .  S
Zn455       O466   2.007       .  S
Zn456       O458   1.928       .  S
Zn456       O461   1.963       .  S
Zn456       O464   1.974       .  S
Zn456       O467   1.979       .  S
Zn457       O458   1.944       .  S
Zn457       O465   2.011       .  S
Zn457       O468   2.014       .  S
Zn457       O469   1.965       .  S
O459        C471   1.280       .  A
O460        C472   1.269       .  A
O461        C473   1.267       .  A
O462        C471   1.270       .  A
O463        C473   1.281       .  A
O464        C472   1.268       .  A
O465        C474   1.271       .  A
O466        C475   1.270       .  A
O467        C474   1.269       .  A
O468        C475   1.272       .  A
O469        C476   1.271       .  A
O470        C476   1.281       .  A
C471        C836   1.485       .  S
C472       C1037   1.478       .  S
C473        C776   1.490       .  S
C474       C1280   1.480       .  S
C475        C749   1.493       .  S
C476        C896   1.487       .  S
C477        C725   1.484       .  S
C477        N478   1.363       .  A
C477        N482   1.359       .  A
N478        C479   1.363       .  A
C479       C1661   1.498       .  S
C479        N480   1.356   1_545  A
N480        C481   1.355       .  A
C481        C740   1.475       .  S
C481        N482   1.356   1_565  A
C483        C716   1.478       .  S
C483        N484   1.355       .  A
C483        N488   1.355   1_545  A
N484        C485   1.356   1_545  A
C485       C1628   1.499       .  S
C485        N486   1.364       .  A
N486        C487   1.364       .  A
C487        C701   1.487       .  S
C487        N488   1.359       .  A
C489        C677   1.478       .  S
C489        N490   1.359       .  A
C489        N494   1.354   1_455  A
N490        C491   1.362   1_455  A
C491       C1592   1.501   1_655  S
C491        N492   1.360       .  A
N492        C493   1.359       .  A
C493        C689   1.474       .  S
C493        N494   1.354       .  A
C495        C656   1.481       .  S
C495        N496   1.359       .  A
C495        N500   1.358       .  A
N496        C497   1.359       .  A
C497       C1532   1.499       .  S
C497        N498   1.362   1_645  A
N498        C499   1.360       .  A
C499        C665   1.481       .  S
C499        N500   1.359   1_465  A
C501        C641   1.482       .  S
C501        N502   1.359       .  A
C501        N506   1.358   1_655  A
N502        C503   1.359   1_655  A
C503       C1544   1.495       .  S
C503        N504   1.359       .  A
N504        C505   1.359       .  A
C505        C629   1.480       .  S
C505        N506   1.359       .  A
Zn507       O511   1.975       .  S
Zn507       O512   2.044       .  S
Zn507       O516   2.055       .  S
Zn507       O523   2.026       .  S
Zn508       O511   1.968       .  S
Zn508       O513   2.030       .  S
Zn508       O515   2.007       .  S
Zn508       O519   2.019       .  S
Zn509       O511   1.928       .  S
Zn509       O514   1.980       .  S
Zn509       O517   1.973       .  S
Zn509       O520   1.987       .  S
Zn510       O511   1.962       .  S
Zn510       O518   2.029       .  S
Zn510       O521   2.015       .  S
Zn510       O522   2.004       .  S
O512        C524   1.277       .  A
O513        C525   1.271       .  A
O514        C526   1.269       .  A
O515        C524   1.273       .  A
O516        C526   1.275       .  A
O517        C525   1.267       .  A
O518        C527   1.271       .  A
O519        C528   1.274       .  A
O520        C527   1.269       .  A
O521        C528   1.274       .  A
O522        C529   1.274       .  A
O523        C529   1.276       .  A
C524        C668   1.484       .  S
C525       C1184   1.464       .  S
C526        C968   1.475       .  S
C527        C812   1.470       .  S
C528        C632   1.478       .  S
C529        C737   1.478       .  S
Zn530       O534   1.930       .  S
Zn530       O535   1.983       .  S
Zn530       O539   1.968       .  S
Zn530       O546   1.980       .  S
Zn531       O534   1.960       .  S
Zn531       O536   2.009       .  S
Zn531       O538   2.026       .  S
Zn531       O542   2.009       .  S
Zn532       O534   1.976       .  S
Zn532       O537   2.047       .  S
Zn532       O540   2.019       .  S
Zn532       O543   2.026       .  S
Zn533       O534   1.964       .  S
Zn533       O541   2.019       .  S
Zn533       O544   2.031       .  S
Zn533       O545   2.039       .  S
O535        C547   1.268       .  A
O536        C548   1.275       .  A
O537        C549   1.273       .  A
O538        C547   1.270       .  A
O539        C549   1.267       .  A
O540        C548   1.275       .  A
O541        C550   1.276       .  A
O542        C551   1.274       .  A
O543        C550   1.275       .  A
O544        C551   1.275       .  A
O545        C552   1.274       .  A
O546        C552   1.269       .  A
C547       C1220   1.467       .  S
C548        C692   1.482       .  S
C549        C872   1.468       .  S
C550        C713   1.479       .  S
C551        C653   1.479       .  S
C552        C944   1.471       .  S
C553        C605   1.477       .  S
C553        N554   1.356   1_545  A
C553        N558   1.360       .  A
N554        C555   1.356   1_455  A
C555        C617   1.476       .  S
C555        N556   1.358       .  A
N556        C557   1.360   1_655  A
C557       C1496   1.486   1_565  S
C557        N558   1.360   1_565  A
Zn559       O563   1.934       .  S
Zn559       O564   1.984       .  S
Zn559       O568   1.988       .  S
Zn559       O575   1.996       .  S
Zn560       O563   1.968       .  S
Zn560       O565   2.024       .  S
Zn560       O567   2.038       .  S
Zn560       O571   2.032       .  S
Zn561       O563   1.967       .  S
Zn561       O566   2.028       .  S
Zn561       O569   2.018       .  S
Zn561       O572   2.015       .  S
Zn562       O563   1.962       .  S
Zn562       O570   2.017       .  S
Zn562       O573   2.010       .  S
Zn562       O574   2.020       .  S
O564        C576   1.268       .  A
O565        C577   1.275       .  A
O566        C578   1.272       .  A
O567        C576   1.273       .  A
O568        C578   1.270       .  A
O569        C577   1.274       .  A
O570        C579   1.274       .  A
O571        C580   1.277       .  A
O572        C579   1.274       .  A
O573        C580   1.274       .  A
O574        C581   1.270       .  A
O575        C581   1.271       .  A
C576        C752   1.469       .  S
C577        C704   1.476       .  S
C578       C1028   1.466       .  S
C579        C620   1.482       .  S
C580        C644   1.479       .  S
C581       C1256   1.470       .  S
Zn582       O586   1.959       .  S
Zn582       O587   2.019       .  S
Zn582       O591   2.024       .  S
Zn582       O598   2.019       .  S
Zn583       O586   1.970       .  S
Zn583       O588   2.043       .  S
Zn583       O590   2.033       .  S
Zn583       O594   2.014       .  S
Zn584       O586   1.924       .  S
Zn584       O589   1.978       .  S
Zn584       O592   1.963       .  S
Zn584       O595   1.966       .  S
Zn585       O586   1.973       .  S
Zn585       O593   2.037       .  S
Zn585       O596   2.015       .  S
Zn585       O597   2.014       .  S
O587        C599   1.276       .  A
O588        C600   1.272       .  A
O589        C601   1.268       .  A
O590        C599   1.277       .  A
O591        C601   1.270       .  A
O592        C600   1.267       .  A
O593        C602   1.272       .  A
O594        C603   1.275       .  A
O595        C602   1.265       .  A
O596        C603   1.274       .  A
O597        C604   1.274       .  A
O598        C604   1.276       .  A
C599        C728   1.482       .  S
C600        C992   1.472       .  S
C601        C764   1.464       .  S
C602       C1313   1.465       .  S
C603        C608   1.476       .  S
C604        C680   1.478       .  S
C605        C606   1.401       .  A
C605        C610   1.414       .  A
C606        C607   1.398       .  A
C606        H611   1.085       .  S
C607        C608   1.414       .  A
C607        C614   1.446       .  S
C608        C609   1.402       .  A
C609        C610   1.402       .  A
C609        H612   1.085       .  S
C610        C613   1.444   1_455  S
C613        N615   1.157       .  T
C614        N616   1.157       .  T
C617        C618   1.402       .  A
C617        C622   1.410       .  A
C618        C619   1.400       .  A
C618        H623   1.084       .  S
C619        C620   1.414       .  A
C619        C626   1.443       .  S
C620        C621   1.406       .  A
C621        C622   1.400       .  A
C621        H624   1.085       .  S
C622        C625   1.444       .  S
C625        N627   1.157       .  T
C626        N628   1.157       .  T
C629        C630   1.403       .  A
C629        C634   1.413       .  A
C630        C631   1.399       .  A
C630        H635   1.084       .  S
C631        C632   1.413       .  A
C631        C638   1.445       .  S
C632        C633   1.403       .  A
C633        C634   1.402       .  A
C633        H636   1.084       .  S
C634        C637   1.444       .  S
C637        N639   1.157   1_455  T
C638        N640   1.157       .  T
C641        C642   1.406       .  A
C641        C646   1.413       .  A
C642        C643   1.402       .  A
C642        H647   1.084       .  S
C643        C644   1.410       .  A
C643        C650   1.443       .  S
C644        C645   1.404       .  A
C645        C646   1.400       .  A
C645        H648   1.085       .  S
C646        C649   1.445       .  S
C649        N651   1.157   1_655  T
C650        N652   1.157       .  T
C653        C654   1.404       .  A
C653        C658   1.413       .  A
C654        C655   1.404       .  A
C654        H659   1.084       .  S
C655        C656   1.414       .  A
C655        C662   1.444   1_545  S
C656        C657   1.402       .  A
C657        C658   1.398       .  A
C657        H660   1.084       .  S
C658        C661   1.445       .  S
C661        N663   1.157       .  T
C662        N664   1.157       .  T
C665        C666   1.402       .  A
C665        C670   1.413       .  A
C666        C667   1.401       .  A
C666        H671   1.085       .  S
C667        C668   1.416       .  A
C667        C674   1.445       .  S
C668        C669   1.404       .  A
C669        C670   1.405       .  A
C669        H672   1.084       .  S
C670        C673   1.444   1_565  S
C673        N675   1.157       .  T
C674        N676   1.157       .  T
C677        C678   1.402       .  A
C677        C682   1.414       .  A
C678        C679   1.399       .  A
C678        H683   1.085       .  S
C679        C680   1.414       .  A
C679        C686   1.445       .  S
C680        C681   1.403       .  A
C681        C682   1.401       .  A
C681        H684   1.085       .  S
C682        C685   1.444   1_455  S
C685        N687   1.157       .  T
C686        N688   1.157       .  T
C689        C690   1.403       .  A
C689        C694   1.409       .  A
C690        C691   1.400       .  A
C690        H695   1.085       .  S
C691        C692   1.414       .  A
C691        C698   1.443       .  S
C692        C693   1.407       .  A
C693        C694   1.398       .  A
C693        H696   1.085       .  S
C694        C697   1.444       .  S
C697        N699   1.157       .  T
C698        N700   1.157       .  T
C701        C702   1.408       .  A
C701        C706   1.415       .  A
C702        C703   1.401       .  A
C702        H707   1.085       .  S
C703        C704   1.407       .  A
C703        C710   1.443       .  S
C704        C705   1.403       .  A
C705        C706   1.402       .  A
C705        H708   1.085       .  S
C706        C709   1.444       .  S
C709        N711   1.157       .  T
C710        N712   1.157       .  T
C713        C714   1.403       .  A
C713        C718   1.412       .  A
C714        C715   1.398       .  A
C714        H719   1.085       .  S
C715        C716   1.412       .  A
C715        C722   1.445       .  S
C716        C717   1.404       .  A
C717        C718   1.402       .  A
C717        H720   1.084       .  S
C718        C721   1.442       .  S
C721        N723   1.157       .  T
C722        N724   1.157       .  T
C725        C726   1.407       .  A
C725        C730   1.412       .  A
C726        C727   1.403       .  A
C726        H731   1.085       .  S
C727        C728   1.411       .  A
C727        C734   1.444       .  S
C728        C729   1.405       .  A
C729        C730   1.401       .  A
C729        H732   1.085       .  S
C730        C733   1.444       .  S
C733        N735   1.157       .  T
C734        N736   1.157       .  T
C737        C738   1.404       .  A
C737        C742   1.412       .  A
C738        C739   1.398       .  A
C738        H743   1.085       .  S
C739        C740   1.411       .  A
C739        C746   1.445       .  S
C740        C741   1.404       .  A
C741        C742   1.401       .  A
C741        H744   1.085       .  S
C742        C745   1.444       .  S
C745        N747   1.157       .  T
C746        N748   1.157       .  T
C749        C750   1.410       .  A
C749        C754   1.421       .  A
C750        C751   1.401       .  A
C750        H755   1.084       .  S
C751        C752   1.406       .  A
C751        C758   1.444       .  S
C752        C753   1.399       .  A
C753        C754   1.401       .  A
C753        H756   1.085       .  S
C754        C757   1.445       .  S
C757        N759   1.158       .  T
C758        N760   1.157       .  T
C761        C762   1.411       .  A
C761        C766   1.419       .  A
C762        C763   1.400       .  A
C762        H767   1.084       .  S
C763        C764   1.404       .  A
C763        C770   1.444       .  S
C764        C765   1.398       .  A
C765        C766   1.397       .  A
C765        H768   1.086       .  S
C766        C769   1.445       .  S
C769        N771   1.157       .  T
C770        N772   1.157       .  T
C773        C774   1.401       .  A
C773        C778   1.418       .  A
C774        C775   1.400       .  A
C774        H779   1.085       .  S
C775        C776   1.419       .  A
C775        C782   1.446       .  S
C776        C777   1.403       .  A
C777        C778   1.407       .  A
C777        H780   1.084       .  S
C778        C781   1.444       .  S
C781        N783   1.157       .  T
C782        N784   1.158       .  T
C785        C786   1.403       .  A
C785        C790   1.419       .  A
C786        C787   1.397       .  A
C786        H791   1.084       .  S
C787        C788   1.421       .  A
C787        C794   1.445       .  S
C788        C789   1.407       .  A
C789        C790   1.407       .  A
C789        H792   1.084       .  S
C790        C793   1.444       .  S
C793        N795   1.157       .  T
C794        N796   1.157       .  T
C797        C798   1.402       .  A
C797        C802   1.419       .  A
C798        C799   1.398       .  A
C798        H803   1.085       .  S
C799        C800   1.416       .  A
C799        C806   1.446       .  S
C800        C801   1.402       .  A
C801        C802   1.403       .  A
C801        H804   1.085       .  S
C802        C805   1.444       .  S
C805        N807   1.157       .  T
C806        N808   1.158       .  T
C809        C810   1.404       .  A
C809        C814   1.410       .  A
C810        C811   1.404       .  A
C810        H815   1.085       .  S
C811        C812   1.411       .  A
C811        C818   1.443       .  S
C812        C813   1.401       .  A
C813        C814   1.394       .  A
C813        H816   1.085       .  S
C814        C817   1.446       .  S
C817        N819   1.157       .  T
C818        N820   1.157       .  T
C821        C822   1.401       .  A
C821        C826   1.412       .  A
C822        C823   1.403       .  A
C822        H827   1.085       .  S
C823        C824   1.419       .  A
C823        C830   1.444       .  S
C824        C825   1.405       .  A
C825        C826   1.399       .  A
C825        H828   1.085       .  S
C826        C829   1.445       .  S
C829        N831   1.157       .  T
C830        N832   1.157       .  T
C833        C834   1.410       .  A
C833        C838   1.412       .  A
C834        C835   1.403       .  A
C834        H839   1.084       .  S
C835        C836   1.410       .  A
C835        C842   1.443       .  S
C836        C837   1.407       .  A
C837        C838   1.397       .  A
C837        H840   1.085       .  S
C838        C841   1.444       .  S
C841        N843   1.157       .  T
C842        N844   1.157       .  T
C845        C846   1.402       .  A
C845        C850   1.416       .  A
C846        C847   1.397       .  A
C846        H851   1.082       .  S
C847        C848   1.411       .  A
C847        C854   1.445       .  S
C848        C849   1.402       .  A
C849        C850   1.401       .  A
C849        H852   1.085       .  S
C850        C853   1.444       .  S
C853        N855   1.157       .  T
C854        N856   1.157       .  T
C857        C858   1.409       .  A
C857        C862   1.413       .  A
C858        C859   1.404       .  A
C858        H863   1.084       .  S
C859        C860   1.413       .  A
C859        C866   1.443       .  S
C860        C861   1.409       .  A
C861        C862   1.395       .  A
C861        H864   1.085       .  S
C862        C865   1.445       .  S
C865        N867   1.158       .  T
C866        N868   1.157       .  T
C869        C870   1.403       .  A
C869        C874   1.410       .  A
C870        C871   1.404       .  A
C870        H875   1.085       .  S
C871        C872   1.410       .  A
C871        C878   1.443       .  S
C872        C873   1.402       .  A
C873        C874   1.396       .  A
C873        H876   1.085       .  S
C874        C877   1.446       .  S
C877        N879   1.157       .  T
C878        N880   1.157       .  T
C881        C882   1.403       .  A
C881        C886   1.408       .  A
C882        C883   1.396       .  A
C882        H887   1.085       .  S
C883        C884   1.412       .  A
C883        C890   1.445       .  S
C884        C885   1.407       .  A
C885        C886   1.401       .  A
C885        H888   1.085       .  S
C886        C889   1.443       .  S
C889        N891   1.157       .  T
C890        N892   1.157       .  T
C893        C894   1.412       .  A
C893        C898   1.411       .  A
C894        C895   1.404       .  A
C894        H899   1.084       .  S
C895        C896   1.411       .  A
C895        C902   1.444       .  S
C896        C897   1.409       .  A
C897        C898   1.396       .  A
C897        H900   1.085       .  S
C898        C901   1.444       .  S
C901        N903   1.157       .  T
C902        N904   1.157       .  T
C905        C906   1.402       .  A
C905        C910   1.414       .  A
C906        C907   1.399       .  A
C906        H911   1.085       .  S
C907        C908   1.413       .  A
C907        C914   1.445       .  S
C908        C909   1.401       .  A
C909        C910   1.398       .  A
C909        H912   1.084       .  S
C910        C913   1.445       .  S
C913        N915   1.157       .  T
C914        N916   1.157       .  T
C917        C918   1.402       .  A
C917        C922   1.414       .  A
C918        C919   1.399       .  A
C918        H923   1.085       .  S
C919        C920   1.414       .  A
C919        C926   1.445       .  S
C920        C921   1.402       .  A
C921        C922   1.398       .  A
C921        H924   1.085       .  S
C922        C925   1.445       .  S
C925        N927   1.157       .  T
C926        N928   1.157       .  T
C929        C930   1.405       .  A
C929        C934   1.410       .  A
C930        C931   1.398       .  A
C930        H935   1.085       .  S
C931        C932   1.410       .  A
C931        C938   1.445       .  S
C932        C933   1.405       .  A
C933        C934   1.400       .  A
C933        H936   1.085       .  S
C934        C937   1.444       .  S
C937        N939   1.157       .  T
C938        N940   1.157       .  T
C941        C942   1.408       .  A
C941        C946   1.418       .  A
C942        C943   1.396       .  A
C942        H947   1.084       .  S
C943        C944   1.407       .  A
C943        C950   1.446       .  S
C944        C945   1.401       .  A
C945        C946   1.405       .  A
C945        H948   1.085       .  S
C946        C949   1.443       .  S
C949        N951   1.157       .  T
C950        N952   1.157       .  T
C953        C954   1.407       .  A
C953        C958   1.418       .  A
C954        C955   1.395       .  A
C954        H959   1.084       .  S
C955        C956   1.406       .  A
C955        C962   1.446       .  S
C956        C957   1.399       .  A
C957        C958   1.400       .  A
C957        H960   1.085       .  S
C958        C961   1.444       .  S
C961        N963   1.157       .  T
C962        N964   1.157       .  T
C965        C966   1.401       .  A
C965        C970   1.412       .  A
C966        C967   1.395       .  A
C966        H971   1.085       .  S
C967        C968   1.411       .  A
C967        C974   1.446       .  S
C968        C969   1.405       .  A
C969        C970   1.408       .  A
C969        H972   1.084       .  S
C970        C973   1.443       .  S
C973        N975   1.157       .  T
C974        N976   1.157       .  T
C977        C978   1.401       .  A
C977        C982   1.412       .  A
C978        C979   1.391       .  A
C978        H983   1.086       .  S
C979        C980   1.411       .  A
C979        C986   1.447       .  S
C980        C981   1.405       .  A
C981        C982   1.407       .  A
C981        H984   1.084       .  S
C982        C985   1.444       .  S
C985        N987   1.157       .  T
C986        N988   1.157       .  T
C989        C990   1.408       .  A
C989        C994   1.411       .  A
C990        C991   1.407       .  A
C990        H995   1.085       .  S
C991        C992   1.409       .  A
C991        C998   1.443       .  S
C992        C993   1.401       .  A
C993        C994   1.391       .  A
C993        H996   1.086       .  S
C994        C997   1.446       .  S
C997        N999   1.157       .  T
C998       N1000   1.157       .  T
C1001      C1002   1.402       .  A
C1001      C1006   1.411       .  A
C1002      C1003   1.403       .  A
C1002      H1007   1.085       .  S
C1003      C1004   1.413       .  A
C1003      C1010   1.442       .  S
C1004      C1005   1.403       .  A
C1005      C1006   1.393       .  A
C1005      H1008   1.085       .  S
C1006      C1009   1.447       .  S
C1009      N1011   1.158       .  T
C1010      N1012   1.157       .  T
C1013      C1014   1.402       .  A
C1013      C1018   1.413       .  A
C1014      C1015   1.401       .  A
C1014      H1019   1.085       .  S
C1015      C1016   1.415       .  A
C1015      C1022   1.445       .  S
C1016      C1017   1.401       .  A
C1017      C1018   1.397       .  A
C1017      H1020   1.085       .  S
C1018      C1021   1.445       .  S
C1021      N1023   1.157       .  T
C1022      N1024   1.157       .  T
C1025      C1026   1.410       .  A
C1025      C1030   1.421       .  A
C1026      C1027   1.402       .  A
C1026      H1031   1.084       .  S
C1027      C1028   1.405       .  A
C1027      C1034   1.443       .  S
C1028      C1029   1.398       .  A
C1029      C1030   1.396       .  A
C1029      H1032   1.085       .  S
C1030      C1033   1.446       .  S
C1033      N1035   1.158       .  T
C1034      N1036   1.157       .  T
C1037      C1038   1.404       .  A
C1037      C1042   1.413       .  A
C1038      C1039   1.392       .  A
C1038      H1043   1.085       .  S
C1039      C1040   1.416       .  A
C1039      C1046   1.446       .  S
C1040      C1041   1.408       .  A
C1041      C1042   1.398       .  A
C1041      H1044   1.085       .  S
C1042      C1045   1.445       .  S
C1045      N1047   1.158       .  T
C1046      N1048   1.157       .  T
C1049      C1050   1.403       .  A
C1049      C1054   1.418       .  A
C1050      C1051   1.404       .  A
C1050      H1055   1.085       .  S
C1051      C1052   1.418       .  A
C1051      C1058   1.444       .  S
C1052      C1053   1.400       .  A
C1053      C1054   1.395       .  A
C1053      H1056   1.085       .  S
C1054      C1057   1.446       .  S
C1057      N1059   1.157       .  T
C1058      N1060   1.157       .  T
C1061      C1062   1.403       .  A
C1061      C1066   1.417       .  A
C1062      C1063   1.395       .  A
C1062      H1067   1.085       .  S
C1063      C1064   1.414       .  A
C1063      C1070   1.445       .  S
C1064      C1065   1.403       .  A
C1065      C1066   1.403       .  A
C1065      H1068   1.085       .  S
C1066      C1069   1.444       .  S
C1069      N1071   1.157   1_545  T
C1070      N1072   1.157       .  T
C1073      C1074   1.410       .  A
C1073      C1078   1.413       .  A
C1074      C1075   1.405       .  A
C1074      H1079   1.084       .  S
C1075      C1076   1.410       .  A
C1075      C1082   1.444       .  S
C1076      C1077   1.404       .  A
C1077      C1078   1.393       .  A
C1077      H1080   1.085       .  S
C1078      C1081   1.445       .  S
C1081      N1083   1.157       .  T
C1082      N1084   1.157       .  T
C1085      C1086   1.408       .  A
C1085      C1090   1.411       .  A
C1086      C1087   1.400       .  A
C1086      H1091   1.085       .  S
C1087      C1088   1.408       .  A
C1087      C1094   1.444       .  S
C1088      C1089   1.404       .  A
C1089      C1090   1.398       .  A
C1089      H1092   1.085       .  S
C1090      C1093   1.444       .  S
C1093      N1095   1.157       .  T
C1094      N1096   1.157       .  T
C1097      C1098   1.406       .  A
C1097      C1102   1.411       .  A
C1098      C1099   1.397       .  A
C1098      H1103   1.084       .  S
C1099      C1100   1.407       .  A
C1099      C1106   1.444       .  S
C1100      C1101   1.404       .  A
C1101      C1102   1.400       .  A
C1101      H1104   1.084       .  S
C1102      C1105   1.444       .  S
C1105      N1107   1.157       .  T
C1106      N1108   1.157       .  T
C1109      C1110   1.411       .  A
C1109      C1114   1.413       .  A
C1110      C1111   1.403       .  A
C1110      H1115   1.084       .  S
C1111      C1112   1.410       .  A
C1111      C1118   1.443       .  S
C1112      C1113   1.407       .  A
C1113      C1114   1.395       .  A
C1113      H1116   1.085       .  S
C1114      C1117   1.444       .  S
C1117      N1119   1.157       .  T
C1118      N1120   1.157       .  T
C1121      C1122   1.398       .  A
C1121      C1126   1.407       .  A
C1122      C1123   1.399       .  A
C1122      H1127   1.085       .  S
C1123      C1124   1.420       .  A
C1123      C1130   1.445       .  S
C1124      C1125   1.407       .  A
C1125      C1126   1.399       .  A
C1125      H1128   1.085       .  S
C1126      C1129   1.444       .  S
C1129      N1131   1.157       .  T
C1130      N1132   1.157       .  T
C1133      C1134   1.405       .  A
C1133      C1138   1.422       .  A
C1134      C1135   1.398       .  A
C1134      H1139   1.084       .  S
C1135      C1136   1.420       .  A
C1135      C1142   1.446       .  S
C1136      C1137   1.403       .  A
C1137      C1138   1.404       .  A
C1137      H1140   1.085       .  S
C1138      C1141   1.443       .  S
C1141      N1143   1.157       .  T
C1142      N1144   1.158       .  T
C1145      C1146   1.401       .  A
C1145      C1150   1.411       .  A
C1146      C1147   1.401       .  A
C1146      H1151   1.085       .  S
C1147      C1148   1.416       .  A
C1147      C1154   1.445       .  S
C1148      C1149   1.405       .  A
C1149      C1150   1.401       .  A
C1149      H1152   1.085       .  S
C1150      C1153   1.444       .  S
C1153      N1155   1.157       .  T
C1154      N1156   1.157       .  T
C1157      C1158   1.408       .  A
C1157      C1162   1.413       .  A
C1158      C1159   1.406       .  A
C1158      H1163   1.084       .  S
C1159      C1160   1.411       .  A
C1159      C1166   1.444       .  S
C1160      C1161   1.405       .  A
C1161      C1162   1.398       .  A
C1161      H1164   1.085       .  S
C1162      C1165   1.445       .  S
C1165      N1167   1.157       .  T
C1166      N1168   1.157       .  T
C1169      C1170   1.403       .  A
C1169      C1174   1.416       .  A
C1170      C1171   1.398       .  A
C1170      H1175   1.083       .  S
C1171      C1172   1.411       .  A
C1171      C1178   1.445       .  S
C1172      C1173   1.402       .  A
C1173      C1174   1.404       .  A
C1173      H1176   1.085       .  S
C1174      C1177   1.444       .  S
C1177      N1179   1.157       .  T
C1178      N1180   1.157       .  T
C1181      C1182   1.410       .  A
C1181      C1186   1.420       .  A
C1182      C1183   1.400       .  A
C1182      H1187   1.084       .  S
C1183      C1184   1.405       .  A
C1183      C1190   1.444       .  S
C1184      C1185   1.398       .  A
C1185      C1186   1.398       .  A
C1185      H1188   1.085       .  S
C1186      C1189   1.445       .  S
C1189      N1191   1.157       .  T
C1190      N1192   1.157       .  T
C1193      C1194   1.407       .  A
C1193      C1198   1.417       .  A
C1194      C1195   1.399       .  A
C1194      H1199   1.085       .  S
C1195      C1196   1.407       .  A
C1195      C1202   1.444       .  S
C1196      C1197   1.398       .  A
C1197      C1198   1.393       .  A
C1197      H1200   1.086       .  S
C1198      C1201   1.446       .  S
C1201      N1203   1.157       .  T
C1202      N1204   1.157       .  T
C1205      C1206   1.399       .  A
C1205      C1210   1.405       .  A
C1206      C1207   1.400       .  A
C1206      H1211   1.086       .  S
C1207      C1208   1.419       .  A
C1207      C1214   1.443       .  S
C1208      C1209   1.411       .  A
C1209      C1210   1.399       .  A
C1209      H1212   1.084       .  S
C1210      C1213   1.445       .  S
C1213      N1215   1.157       .  T
C1214      N1216   1.157       .  T
C1217      C1218   1.407       .  A
C1217      C1222   1.416       .  A
C1218      C1219   1.394       .  A
C1218      H1223   1.083       .  S
C1219      C1220   1.407       .  A
C1219      C1226   1.446       .  S
C1220      C1221   1.401       .  A
C1221      C1222   1.404       .  A
C1221      H1224   1.085       .  S
C1222      C1225   1.443       .  S
C1225      N1227   1.157       .  T
C1226      N1228   1.157       .  T
C1229      C1230   1.405       .  A
C1229      C1234   1.416       .  A
C1230      C1231   1.396       .  A
C1230      H1235   1.085       .  S
C1231      C1232   1.416       .  A
C1231      C1238   1.445       .  S
C1232      C1233   1.407       .  A
C1233      C1234   1.399       .  A
C1233      H1236   1.085       .  S
C1234      C1237   1.445       .  S
C1237      N1239   1.158       .  T
C1238      N1240   1.157       .  T
C1241      C1242   1.408       .  A
C1241      C1246   1.418       .  A
C1242      C1243   1.400       .  A
C1242      H1247   1.085       .  S
C1243      C1244   1.406       .  A
C1243      C1250   1.443       .  S
C1244      C1245   1.398       .  A
C1245      C1246   1.392       .  A
C1245      H1248   1.086       .  S
C1246      C1249   1.445       .  S
C1249      N1251   1.157       .  T
C1250      N1252   1.157       .  T
C1253      C1254   1.404       .  A
C1253      C1258   1.409       .  A
C1254      C1255   1.405       .  A
C1254      H1259   1.085       .  S
C1255      C1256   1.411       .  A
C1255      C1262   1.443       .  S
C1256      C1257   1.400       .  A
C1257      C1258   1.393       .  A
C1257      H1260   1.085       .  S
C1258      C1261   1.446       .  S
C1261      N1263   1.157       .  T
C1262      N1264   1.157       .  T
C1265      C1266   1.403       .  A
C1265      C1270   1.411       .  A
C1266      C1267   1.404       .  A
C1266      H1271   1.084       .  S
C1267      C1268   1.416       .  A
C1267      C1274   1.444       .  S
C1268      C1269   1.404       .  A
C1269      C1270   1.395       .  A
C1269      H1272   1.084       .  S
C1270      C1273   1.446       .  S
C1273      N1275   1.157       .  T
C1274      N1276   1.157       .  T
C1277      C1278   1.401       .  A
C1277      C1282   1.405       .  A
C1278      C1279   1.402       .  A
C1278      H1283   1.085       .  S
C1279      C1280   1.416       .  A
C1279      C1286   1.444       .  S
C1280      C1281   1.407       .  A
C1281      C1282   1.393       .  A
C1281      H1284   1.085       .  S
C1282      C1285   1.445       .  S
C1285      N1287   1.157       .  T
C1286      N1288   1.157       .  T
C1289      C1290   1.404       .  A
C1289      C1294   1.421       .  A
C1290      C1291   1.402       .  A
C1290      H1295   1.085       .  S
C1291      C1292   1.419       .  A
C1291      C1298   1.444       .  S
C1292      C1293   1.403       .  A
C1293      C1294   1.400       .  A
C1293      H1296   1.085       .  S
C1294      C1297   1.446       .  S
C1297      N1299   1.158       .  T
C1298      N1300   1.157   1_455  T
C1301      C1302   1.408       .  A
C1301      C1306   1.413       .  A
C1302      C1303   1.401       .  A
C1302      H1307   1.085       .  S
C1303      C1304   1.409       .  A
C1303      C1310   1.443       .  S
C1304      C1305   1.406       .  A
C1305      C1306   1.402       .  A
C1305      H1308   1.085       .  S
C1306      C1309   1.444       .  S
C1309      N1311   1.157       .  T
C1310      N1312   1.157       .  T
C1313      C1314   1.400       .  A
C1313      C1318   1.405       .  A
C1314      C1315   1.399       .  A
C1314      H1319   1.085       .  S
C1315      C1316   1.419       .  A
C1315      C1322   1.445       .  S
C1316      C1317   1.411       .  A
C1317      C1318   1.400       .  A
C1317      H1320   1.084       .  S
C1318      C1321   1.444       .  S
C1321      N1323   1.157       .  T
C1322      N1324   1.157       .  T
C1325      C1326   1.409       .  A
C1325      C1330   1.421       .  A
C1326      C1327   1.400       .  A
C1326      H1331   1.084       .  S
C1327      C1328   1.405       .  A
C1327      C1334   1.444       .  S
C1328      C1329   1.397       .  A
C1329      C1330   1.397       .  A
C1329      H1332   1.085       .  S
C1330      C1333   1.445       .  S
C1333      N1335   1.158       .  T
C1334      N1336   1.157       .  T
C1337      C1338   1.407       .  A
C1337      C1342   1.416       .  A
C1338      C1339   1.400       .  A
C1338      H1343   1.084       .  S
C1339      C1340   1.415       .  A
C1339      C1346   1.444       .  S
C1340      C1341   1.407       .  A
C1341      C1342   1.398       .  A
C1341      H1344   1.084       .  S
C1342      C1345   1.445       .  S
C1345      N1347   1.158       .  T
C1346      N1348   1.157       .  T
C1349      C1350   1.405       .  A
C1349      C1354   1.411       .  A
C1350      C1351   1.399       .  A
C1350      H1355   1.082       .  S
C1351      C1352   1.409       .  A
C1351      C1358   1.443       .  S
C1352      C1353   1.407       .  A
C1353      C1354   1.403       .  A
C1353      H1356   1.085       .  S
C1354      C1357   1.444       .  S
C1357      N1359   1.157       .  T
C1358      N1360   1.157       .  T
C1361      C1362   1.402       .  A
C1361      C1366   1.419       .  A
C1362      C1363   1.404       .  A
C1362      H1367   1.085       .  S
C1363      C1364   1.418       .  A
C1363      C1370   1.443       .  S
C1364      C1365   1.401       .  A
C1365      C1366   1.398       .  A
C1365      H1368   1.083       .  S
C1366      C1369   1.446       .  S
C1369      N1371   1.158       .  T
C1370      N1372   1.157       .  T
C1373      C1374   1.409       .  A
C1373      C1378   1.413       .  A
C1374      C1375   1.404       .  A
C1374      H1379   1.083       .  S
C1375      C1376   1.411       .  A
C1375      C1382   1.443       .  S
C1376      C1377   1.406       .  A
C1377      C1378   1.396       .  A
C1377      H1380   1.085       .  S
C1378      C1381   1.444       .  S
C1381      N1383   1.157       .  T
C1382      N1384   1.157       .  T
C1385      C1386   1.402       .  A
C1385      C1390   1.416       .  A
C1386      C1387   1.397       .  A
C1386      H1391   1.085       .  S
C1387      C1388   1.416       .  A
C1387      C1394   1.446       .  S
C1388      C1389   1.403       .  A
C1389      C1390   1.405       .  A
C1389      H1392   1.085       .  S
C1390      C1393   1.443       .  S
C1393      N1395   1.157   1_556  T
C1394      N1396   1.158       .  T
C1397      C1398   1.404       .  A
C1397      C1402   1.416       .  A
C1398      C1399   1.403       .  A
C1398      H1403   1.084       .  S
C1399      C1400   1.415       .  A
C1399      C1406   1.444       .  S
C1400      C1401   1.399       .  A
C1401      C1402   1.393       .  A
C1401      H1404   1.084       .  S
C1402      C1405   1.445       .  S
C1405      N1407   1.157       .  T
C1406      N1408   1.157   1_455  T
C1409      C1410   1.402       .  A
C1409      C1414   1.421       .  A
C1410      C1411   1.393       .  A
C1410      H1415   1.085       .  S
C1411      C1412   1.421       .  A
C1411      C1418   1.447       .  S
C1412      C1413   1.403       .  A
C1413      C1414   1.404       .  A
C1413      H1416   1.085       .  S
C1414      C1417   1.444       .  S
C1417      N1419   1.157   1_655  T
C1418      N1420   1.158       .  T
C1421      C1422   1.406       .  A
C1421      C1426   1.411       .  A
C1422      C1423   1.394       .  A
C1422      H1427   1.085       .  S
C1423      C1424   1.410       .  A
C1423      C1430   1.445       .  S
C1424      C1425   1.409       .  A
C1425      C1426   1.406       .  A
C1425      H1428   1.085       .  S
C1426      C1429   1.443       .  S
C1429      N1431   1.157       .  T
C1430      N1432   1.157       .  T
C1433      C1434   1.407       .  A
C1433      C1438   1.410       .  A
C1434      C1435   1.404       .  A
C1434      H1439   1.085       .  S
C1435      C1436   1.410       .  A
C1435      C1442   1.444       .  S
C1436      C1437   1.406       .  A
C1437      C1438   1.398       .  A
C1437      H1440   1.085       .  S
C1438      C1441   1.445       .  S
C1441      N1443   1.157       .  T
C1442      N1444   1.157       .  T
C1445      C1446   1.403       .  A
C1445      C1450   1.409       .  A
C1446      C1447   1.400       .  A
C1446      H1451   1.085       .  S
C1447      C1448   1.413       .  A
C1447      C1454   1.444       .  S
C1448      C1449   1.407       .  A
C1449      C1450   1.400       .  A
C1449      H1452   1.085       .  S
C1450      C1453   1.444       .  S
C1453      N1455   1.157       .  T
C1454      N1456   1.157       .  T
C1457      C1458   1.404       .  A
C1457      C1462   1.421       .  A
C1458      C1459   1.405       .  A
C1458      H1463   1.086       .  S
C1459      C1460   1.421       .  A
C1459      C1466   1.445       .  S
C1460      C1461   1.402       .  A
C1461      C1462   1.398       .  A
C1461      H1464   1.086       .  S
C1462      C1465   1.445       .  S
C1465      N1467   1.157       .  T
C1466      N1468   1.158   1_554  T
C1469      C1470   1.407   1_544  A
C1469      C1474   1.417       .  A
C1470      C1471   1.401       .  A
C1470      H1475   1.085       .  S
C1471      C1472   1.417   1_565  A
C1471      C1478   1.445       .  S
C1472      C1473   1.407   1_556  A
C1473      C1474   1.403       .  A
C1473      H1476   1.085       .  S
C1474      C1477   1.444       .  S
C1477      N1479   1.157       .  T
C1478      N1480   1.157       .  T
C1481      C1482   1.407       .  A
C1481      C1486   1.418   1_554  A
C1482      C1483   1.403   1_655  A
C1482      H1487   1.085   1_655  S
C1483      C1484   1.417   1_455  A
C1483      C1490   1.444       .  S
C1484      C1485   1.407   1_554  A
C1485      C1486   1.405       .  A
C1485      H1488   1.085       .  S
C1486      C1489   1.444       .  S
C1489      N1491   1.157       .  T
C1490      N1492   1.157       .  T
C1493      C1494   1.406   1_655  A
C1493      C1498   1.414   1_545  A
C1494      C1495   1.403       .  A
C1494      H1499   1.085       .  S
C1495      C1496   1.414       .  A
C1495      C1502   1.444       .  S
C1496      C1497   1.405   1_445  A
C1497      C1498   1.400       .  A
C1497      H1500   1.085       .  S
C1498      C1501   1.445       .  S
C1501      N1503   1.157       .  T
C1502      N1504   1.157       .  T
C1505      C1506   1.407   1_654  A
C1505      C1510   1.417       .  A
C1506      C1507   1.404       .  A
C1506      H1511   1.085       .  S
C1507      C1508   1.419   1_456  A
C1507      C1514   1.444       .  S
C1508      C1509   1.407       .  A
C1509      C1510   1.403       .  A
C1509      H1512   1.082       .  S
C1510      C1513   1.445       .  S
C1513      N1515   1.157       .  T
C1514      N1516   1.158       .  T
C1517      C1518   1.405   1_564  A
C1517      C1522   1.416       .  A
C1518      C1519   1.401       .  A
C1518      H1523   1.085       .  S
C1519      C1520   1.418   1_545  A
C1519      C1526   1.445       .  S
C1520      C1521   1.408   1_556  A
C1521      C1522   1.404       .  A
C1521      H1524   1.084       .  S
C1522      C1525   1.445       .  S
C1525      N1527   1.157       .  T
C1526      N1528   1.157       .  T
C1529      C1530   1.406       .  A
C1529      C1534   1.418   1_645  A
C1530      C1531   1.402       .  A
C1530      H1535   1.085       .  S
C1531      C1532   1.420       .  A
C1531      C1538   1.444       .  S
C1532      C1533   1.408   1_645  A
C1533      C1534   1.403       .  A
C1533      H1536   1.085       .  S
C1534      C1537   1.445       .  S
C1537      N1539   1.158       .  T
C1538      N1540   1.157       .  T
C1541      C1542   1.407   1_455  A
C1541      C1546   1.418       .  A
C1542      C1543   1.401       .  A
C1542      H1547   1.085       .  S
C1543      C1544   1.417   1_655  A
C1543      C1550   1.445       .  S
C1544      C1545   1.407       .  A
C1545      C1546   1.403       .  A
C1545      H1548   1.085       .  S
C1546      C1549   1.445       .  S
C1549      N1551   1.158       .  T
C1550      N1552   1.157       .  T
C1553      C1554   1.408       .  A
C1553      C1558   1.417       .  A
C1554      C1555   1.404       .  A
C1554      H1559   1.084       .  S
C1555      C1556   1.420       .  A
C1555      C1562   1.445       .  S
C1556      C1557   1.408       .  A
C1557      C1558   1.403       .  A
C1557      H1560   1.082       .  S
C1558      C1561   1.444       .  S
C1561      N1563   1.157       .  T
C1562      N1564   1.158       .  T
C1565      C1566   1.406       .  A
C1565      C1570   1.416   1_455  A
C1566      C1567   1.403       .  A
C1566      H1571   1.085       .  S
C1567      C1568   1.417       .  A
C1567      C1574   1.443       .  S
C1568      C1569   1.408   1_455  A
C1569      C1570   1.405       .  A
C1569      H1572   1.085       .  S
C1570      C1573   1.445       .  S
C1573      N1575   1.158       .  T
C1574      N1576   1.157       .  T
C1577      C1578   1.407       .  A
C1577      C1582   1.419       .  A
C1578      C1579   1.404       .  A
C1578      H1583   1.085       .  S
C1579      C1580   1.420       .  A
C1579      C1586   1.444       .  S
C1580      C1581   1.409       .  A
C1581      C1582   1.405       .  A
C1581      H1584   1.084       .  S
C1582      C1585   1.445       .  S
C1585      N1587   1.158       .  T
C1586      N1588   1.157       .  T
C1589      C1590   1.407   1_455  A
C1589      C1594   1.418       .  A
C1590      C1591   1.403       .  A
C1590      H1595   1.085       .  S
C1591      C1592   1.420   1_655  A
C1591      C1598   1.444       .  S
C1592      C1593   1.408       .  A
C1593      C1594   1.401       .  A
C1593      H1596   1.084       .  S
C1594      C1597   1.445       .  S
C1597      N1599   1.157       .  T
C1598      N1600   1.158       .  T
C1601      C1602   1.408   1_455  A
C1601      C1606   1.420       .  A
C1602      C1603   1.402       .  A
C1602      H1607   1.085       .  S
C1603      C1604   1.418   1_655  A
C1603      C1610   1.445       .  S
C1604      C1605   1.407       .  A
C1605      C1606   1.404       .  A
C1605      H1608   1.085       .  S
C1606      C1609   1.444       .  S
C1609      N1611   1.157       .  T
C1610      N1612   1.157       .  T
C1613      C1614   1.405       .  A
C1613      C1618   1.416       .  A
C1614      C1615   1.403       .  A
C1614      H1619   1.085       .  S
C1615      C1616   1.419       .  A
C1615      C1622   1.443       .  S
C1616      C1617   1.406       .  A
C1617      C1618   1.400       .  A
C1617      H1620   1.082       .  S
C1618      C1621   1.445       .  S
C1621      N1623   1.157       .  T
C1622      N1624   1.157       .  T
C1625      C1626   1.404   1_565  A
C1625      C1630   1.418       .  A
C1626      C1627   1.401       .  A
C1626      H1631   1.085       .  S
C1627      C1628   1.422   1_545  A
C1627      C1634   1.445       .  S
C1628      C1629   1.407       .  A
C1629      C1630   1.403       .  A
C1629      H1632   1.084       .  S
C1630      C1633   1.445       .  S
C1633      N1635   1.157       .  T
C1634      N1636   1.158       .  T
C1637      C1638   1.407       .  A
C1637      C1642   1.417   1_565  A
C1638      C1639   1.403       .  A
C1638      H1643   1.085       .  S
C1639      C1640   1.418       .  A
C1639      C1646   1.444       .  S
C1640      C1641   1.408   1_565  A
C1641      C1642   1.402       .  A
C1641      H1644   1.084       .  S
C1642      C1645   1.445       .  S
C1645      N1647   1.158       .  T
C1646      N1648   1.158       .  T
C1649      C1650   1.406       .  A
C1649      C1654   1.416       .  A
C1650      C1651   1.401       .  A
C1650      H1655   1.084       .  S
C1651      C1652   1.416       .  A
C1651      C1658   1.444       .  S
C1652      C1653   1.407       .  A
C1653      C1654   1.401       .  A
C1653      H1656   1.082       .  S
C1654      C1657   1.445       .  S
C1657      N1659   1.158       .  T
C1658      N1660   1.157       .  T
C1661      C1662   1.406       .  A
C1661      C1666   1.421   1_545  A
C1662      C1663   1.402       .  A
C1662      H1667   1.085       .  S
C1663      C1664   1.420       .  A
C1663      C1670   1.445       .  S
C1664      C1665   1.405   1_545  A
C1665      C1666   1.402       .  A
C1665      H1668   1.085       .  S
C1666      C1669   1.445       .  S
C1669      N1671   1.158       .  T
C1670      N1672   1.157       .  T
C1673      C1674   1.407       .  A
C1673      C1678   1.417   1_565  A
C1674      C1675   1.404       .  A
C1674      H1679   1.087       .  S
C1675      C1676   1.419       .  A
C1675      C1682   1.444       .  S
C1676      C1677   1.406   1_565  A
C1677      C1678   1.400       .  A
C1677      H1680   1.087       .  S
C1678      C1681   1.445       .  S
C1681      N1683   1.158       .  T
C1682      N1684   1.158       .  T
C1685      C1686   1.407   1_556  A
C1685      C1690   1.417       .  A
C1686      C1687   1.404       .  A
C1686      H1691   1.085       .  S
C1687      C1688   1.416   1_554  A
C1687      C1694   1.444       .  S
C1688      C1689   1.407       .  A
C1689      C1690   1.403       .  A
C1689      H1692   1.085       .  S
C1690      C1693   1.444       .  S
C1693      N1695   1.157       .  T
C1694      N1696   1.157       .  T
C1697      C1698   1.408   1_556  A
C1697      C1702   1.418       .  A
C1698      C1699   1.405       .  A
C1698      H1703   1.085       .  S
C1699      C1700   1.417   1_554  A
C1699      C1706   1.444       .  S
C1700      C1701   1.408       .  A
C1701      C1702   1.404       .  A
C1701      H1704   1.084       .  S
C1702      C1705   1.445       .  S
C1705      N1707   1.158       .  T
C1706      N1708   1.157       .  T
C1709      C1710   1.405       .  A
C1709      C1714   1.420       .  A
C1710      C1711   1.405       .  A
C1710      H1715   1.085       .  S
C1711      C1712   1.422       .  A
C1711      C1718   1.444       .  S
C1712      C1713   1.408       .  A
C1713      C1714   1.406       .  A
C1713      H1716   1.084       .  S
C1714      C1717   1.445       .  S
C1717      N1719   1.158       .  T
C1718      N1720   1.157       .  T
C1721      C1722   1.410       .  A
C1721      C1726   1.417       .  A
C1722      C1723   1.406       .  A
C1722      H1727   1.084       .  S
C1723      C1724   1.419       .  A
C1723      C1730   1.445       .  S
C1724      C1725   1.408       .  A
C1725      C1726   1.400       .  A
C1725      H1728   1.084       .  S
C1726      C1729   1.444       .  S
C1729      N1731   1.157       .  T
C1730      N1732   1.158       .  T
C1733      C1734   1.407   1_556  A
C1733      C1738   1.418       .  A
C1734      C1735   1.407       .  A
C1734      H1739   1.085       .  S
C1735      C1736   1.422   1_554  A
C1735      C1742   1.444       .  S
C1736      C1737   1.408       .  A
C1737      C1738   1.406       .  A
C1737      H1740   1.084       .  S
C1738      C1741   1.444       .  S
C1741      N1743   1.157       .  T
C1742      N1744   1.158       .  T
C1745      C1746   1.407       .  A
C1745      C1750   1.417   1_556  A
C1746      C1747   1.405       .  A
C1746      H1751   1.084       .  S
C1747      C1748   1.418       .  A
C1747      C1754   1.443       .  S
C1748      C1749   1.407   1_556  A
C1749      C1750   1.402       .  A
C1749      H1752   1.084       .  S
C1750      C1753   1.445       .  S
C1753      N1755   1.157       .  T
C1754      N1756   1.157       .  T
