geometry optimzed in LAMMPS
_audit_creation_date              2020-11-30 
_audit_creation_method            'lammps2cif' 
_symmetry_space_group_name_H-M    'P1' 
_symmetry_Int_Tables_number       1 
_symmetry_cell_setting            triclinic 
loop_ 
_symmetry_equiv_pos_as_xyz 
  x,y,z 
_cell_length_a                    30.10975628 
_cell_length_b                    30.082647816801245 
_cell_length_c                    30.94239689297728 
_cell_angle_alpha                 90.51339451684714 
_cell_angle_beta                  91.20054000154931 
_cell_angle_gamma                 90.56986141887663 
loop_ 
_atom_site_label 
_atom_site_type_symbol 
_atom_site_fract_x 
_atom_site_fract_y 
_atom_site_fract_z 
_atom_site_charge 
O1          O  0.02315282  0.98140970  0.03506996    -0.70800
O2          O  0.90250558  0.98670427  0.99720593    -0.71000
O3          O  0.95268043  0.92640026  0.03603376    -0.70800
O4          O  0.97247483  0.04300545  0.99610692    -0.70800
O5          O  0.99024025  0.01751801  0.93304170    -0.70800
O6          O  0.97085010  0.89929771  0.97375185    -0.70800
O7          O  0.92065685  0.96085458  0.93425536    -0.70800
O8          O  0.04138352  0.95527904  0.97245338    -0.71000
V9          V  0.96323577  0.98406930  0.01475731     1.35200
V10         V  0.98062730  0.95883627  0.95451356     1.35200
C11         C  0.05279145  0.96629241  0.01069446     0.78500
C12         C  0.89090328  0.97326392  0.95978450     0.78500
C13         C  0.95714976  0.89295991  0.01171790     0.78400
C14         C  0.98371635  0.05053986  0.95773410     0.78400
O15         O  0.52777525  0.52437116  0.81024595    -0.70800
O16         O  0.54077201  0.40480794  0.76938208    -0.71000
O17         O  0.59133372  0.46208164  0.81470811    -0.70800
O18         O  0.47577634  0.46516713  0.76423515    -0.70800
O19         O  0.50298836  0.48859483  0.70404731    -0.70800
O20         O  0.61895162  0.48871545  0.75588700    -0.70800
O21         O  0.56972262  0.43012590  0.71075458    -0.70800
O22         O  0.55340517  0.54812809  0.74963613    -0.71000
V23         V  0.53416262  0.46488382  0.78853835     1.35200
V24         V  0.56048761  0.48862677  0.73126629     1.35200
C25         C  0.53980942  0.55676472  0.78711479     0.78500
C26         C  0.55951850  0.39729648  0.73380153     0.78500
C27         C  0.62491096  0.47287137  0.79325602     0.78400
C28         C  0.46979708  0.47525732  0.72496910     0.78400
C29         C  0.37090391  0.91407818  0.11979588    -0.01500
C30         C  0.42825219  0.14056669  0.36031588    -0.01500
C31         C  0.57686149  0.88544533  0.86298652    -0.01500
C32         C  0.63914927  0.09369914  0.61109550    -0.01500
O33         O  0.02722591  0.01205585  0.45081410    -0.70800
O34         O  0.04387742  0.13153491  0.49173606    -0.71000
O35         O  0.09393936  0.07160099  0.45311164    -0.70800
O36         O  0.97515146  0.07313272  0.48923494    -0.70800
O37         O  0.99477905  0.04576630  0.55125989    -0.70800
O38         O  0.11609734  0.05041250  0.51670398    -0.70800
O39         O  0.06131651  0.10662703  0.55536940    -0.70800
O40         O  0.05066374  0.98822378  0.51305989    -0.71000
V41         V  0.03515207  0.07146498  0.47250512     1.35200
V42         V  0.05512345  0.04799188  0.53291216     1.35200
C43         C  0.03810853  0.97965775  0.47459587     0.78500
C44         C  0.05704794  0.13928065  0.53028294     0.78500
C45         C  0.12556570  0.06315733  0.47901209     0.78400
C46         C  0.96432564  0.06017771  0.52630893     0.78400
O47         O  0.50242320  0.49430849  0.30753348    -0.70800
O48         O  0.49984430  0.61664013  0.27702607    -0.71000
O49         O  0.44099191  0.55866271  0.30755850    -0.70800
O50         O  0.56242608  0.55330903  0.27670847    -0.70800
O51         O  0.54262119  0.53034265  0.21249418    -0.70800
O52         O  0.42151654  0.54594723  0.24051566    -0.70800
O53         O  0.48542882  0.59758088  0.21032555    -0.70800
O54         O  0.47808114  0.47705807  0.24305609    -0.71000
V55         V  0.50129930  0.55516794  0.29103977     1.35200
V56         V  0.48241542  0.53772953  0.22793092     1.35200
C57         C  0.48876127  0.46485805  0.28083000     0.78500
C58         C  0.49139358  0.62784122  0.23840095     0.78500
C59         C  0.41082919  0.55627856  0.27857213     0.78400
C60         C  0.57331597  0.54183276  0.23896767     0.78400
C61         C  0.14323200  0.45225421  0.63821659    -0.01500
C62         C  0.93617265  0.37483561  0.88388284    -0.01500
C63         C  0.11229942  0.66417126  0.37910485    -0.01500
C64         C  0.89192213  0.58742489  0.13841569    -0.01500
C65         C  0.02952728  0.65314628  0.27989806    -0.13300
C66         C  0.00609923  0.61442082  0.28921886     0.17000
C67         C  0.01377481  0.59340161  0.32869019     0.03300
C68         C  0.04551656  0.61098753  0.35799385    -0.11800
C69         C  0.07339566  0.64771360  0.34754990    -0.02900
C70         C  0.06212089  0.67041390  0.30831831     0.02600
C71         C  0.97252204  0.59830365  0.25738131     0.09400
N72         N  0.98962090  0.55405061  0.33945820     0.65800
H73         H  0.04772563  0.59474909  0.38883926     0.18700
N74         N  0.08295616  0.71115569  0.29610039     0.76200
H75         H  0.02231818  0.67040380  0.24996200     0.10200
C76         C  0.93239317  0.62076619  0.25221827     0.03900
C77         C  0.90603205  0.61298224  0.21546288    -0.04800
C78         C  0.91927093  0.58391085  0.18179195    -0.23200
C79         C  0.95696503  0.55627214  0.19069091     0.13100
C80         C  0.98354787  0.56504143  0.22780343    -0.12400
N81         N  0.91981815  0.65442474  0.28233924     0.64800
H82         H  0.87686977  0.63341505  0.21126545     0.12700
N83         N  0.96905842  0.51907529  0.16413066     0.61500
H84         H  0.01382457  0.54648739  0.23308944     0.08800
O85         O  0.06485819  0.74711690  0.30696355    -0.40000
O86         O  0.10664458  0.71105010  0.26291627    -0.39200
O87         O  0.00590758  0.51643782  0.33150867    -0.39200
O88         O  0.95569673  0.55680044  0.36253728    -0.36900
O89         O  0.00912533  0.51445811  0.15387470    -0.37800
O90         O  0.94392344  0.48535130  0.16204889    -0.33900
O91         O  0.92661274  0.69482089  0.27374326    -0.35400
O92         O  0.89538909  0.64432617  0.31346677    -0.39600
C93         C  0.94895681  0.42104753  0.00383343    -0.13300
C94         C  0.93858318  0.46554041  0.99692312     0.17000
C95         C  0.93250159  0.48065854  0.95465178     0.03300
C96         C  0.93377657  0.45062056  0.92019904    -0.11800
C97         C  0.94181548  0.40449337  0.92592839    -0.02900
C98         C  0.95077559  0.39029253  0.96948596     0.02600
C99         C  0.92870131  0.49449957  0.03418190     0.09400
N100        N  0.92273786  0.52620143  0.94628107     0.65800
H101        H  0.92740467  0.46347483  0.88808195     0.18700
N102        N  0.95860166  0.34519254  0.98124236     0.76200
H103        H  0.95347715  0.40947684  0.03670825     0.10200
C104        C  0.88778391  0.49076838  0.05451594     0.03900
C105        C  0.87685064  0.52047238  0.08717849    -0.04800
C106        C  0.90667888  0.55384714  0.10273264    -0.23200
C107        C  0.94785346  0.55830968  0.08027666     0.13100
C108        C  0.95820374  0.52840901  0.04692736    -0.12400
N109        N  0.85541875  0.45846304  0.04054095     0.64800
H110        H  0.84334575  0.51770150  0.09824304     0.12700
N111        N  0.97714701  0.59575959  0.08662596     0.61500
H112        H  0.98900311  0.53264590  0.02984822     0.08800
O113        O  0.92589317  0.31957443  0.98696635    -0.40000
O114        O  0.99552782  0.33558080  0.99863274    -0.39200
O115        O  0.95373028  0.55252360  0.93643632    -0.39200
O116        O  0.88291341  0.53787187  0.94070107    -0.36900
O117        O  0.98023593  0.62388894  0.05677819    -0.37800
O118        O  0.00713921  0.59500357  0.11564151    -0.33900
O119        O  0.85317878  0.42184275  0.05998594    -0.35400
O120        O  0.82312485  0.47047538  0.01690528    -0.39600
C121        C  0.00468361  0.38627775  0.77769229    -0.13300
C122        C  0.03448414  0.42053487  0.78849942     0.17000
C123        C  0.03596884  0.43721405  0.83074028     0.03300
C124        C  0.00620997  0.42098091  0.86108250    -0.11800
C125        C  0.97232248  0.38918915  0.85001884    -0.02900
C126        C  0.97473692  0.36966619  0.80772380     0.02600
C127        C  0.06631617  0.43519948  0.75582175     0.09400
N128        N  0.06832714  0.47003417  0.84359652     0.65800
H129        H  0.01098743  0.43354166  0.89362441     0.18700
N130        N  0.94715712  0.33315353  0.79385606     0.76200
H131        H  0.00512604  0.37168349  0.74552904     0.10200
C132        C  0.10205523  0.40812640  0.74574152     0.03900
C133        C  0.12668812  0.41698905  0.70938218    -0.04800
C134        C  0.11701132  0.45282590  0.68114056    -0.23200
C135        C  0.08182828  0.48186217  0.69319609     0.13100
C136        C  0.05744728  0.47264506  0.73060040    -0.12400
N137        N  0.11268655  0.37020265  0.77133397     0.64800
H138        H  0.15368386  0.39463779  0.70242352     0.12700
N139        N  0.06734663  0.51841477  0.66734970     0.61500
H140        H  0.02930199  0.49321417  0.73834789     0.08800
O141        O  0.92007943  0.33900565  0.76275470    -0.40000
O142        O  0.96081437  0.29427852  0.80075970    -0.39200
O143        O  0.05774087  0.51048648  0.84490474    -0.39200
O144        O  0.10556238  0.45819045  0.85871618    -0.36900
O145        O  0.04367141  0.51067483  0.63397350    -0.37800
O146        O  0.06487351  0.55628090  0.68497039    -0.33900
O147        O  0.10374157  0.33169359  0.75694472    -0.35400
O148        O  0.13758603  0.37481048  0.80440687    -0.39600
C149        C  0.12627335  0.56321090  0.45701783    -0.13300
C150        C  0.11256577  0.58043081  0.49672552     0.17000
C151        C  0.10191723  0.62576329  0.49928366     0.03300
C152        C  0.10438536  0.65238996  0.46250849    -0.11800
C153        C  0.11360190  0.63459354  0.42096956    -0.02900
C154        C  0.12626373  0.58879071  0.41952419     0.02600
C155        C  0.11308149  0.55074048  0.53518570     0.09400
N156        N  0.08712927  0.64526350  0.53870332     0.65800
H157        H  0.09898666  0.68732113  0.46776181     0.18700
N158        N  0.14060225  0.56744656  0.38072065     0.76200
H159        H  0.13731272  0.52909914  0.45487735     0.10200
C160        C  0.09754593  0.50664424  0.53181221     0.03900
C161        C  0.10923897  0.47602238  0.56380038    -0.04800
C162        C  0.13032492  0.48861046  0.60366831    -0.23200
C163        C  0.14342537  0.53461905  0.60739395     0.13100
C164        C  0.13557413  0.56406004  0.57314121    -0.12400
N165        N  0.07000218  0.49235438  0.49569366     0.64800
H166        H  0.10132194  0.44202851  0.55595963     0.12700
N167        N  0.16873638  0.55220942  0.64331868     0.61500
H168        H  0.14948697  0.59733126  0.57564930     0.08800
O169        O  0.18146915  0.55976646  0.37691147    -0.40000
O170        O  0.11317911  0.54390334  0.35900347    -0.39200
O171        O  0.10993423  0.67575262  0.55693546    -0.39200
O172        O  0.04779283  0.63830398  0.55040274    -0.36900
O173        O  0.21033944  0.55518019  0.63966428    -0.37800
O174        O  0.15024701  0.57988844  0.66776619    -0.33900
O175        O  0.07592729  0.45498199  0.47797573    -0.35400
O176        O  0.03794740  0.51602575  0.48302718    -0.39600
C177        C  0.24021299  0.64942496  0.36696038    -0.13300
C178        C  0.24284185  0.63136146  0.32532157     0.17000
C179        C  0.20417698  0.62865694  0.29927409     0.03300
C180        C  0.16348193  0.64197776  0.31585292    -0.11800
C181        C  0.15925473  0.65856606  0.35871455    -0.02900
C182        C  0.19956445  0.66258347  0.38415618     0.02600
C183        C  0.28516072  0.61111185  0.31160692     0.09400
N184        N  0.20462746  0.60807204  0.25739649     0.65800
H185        H  0.13505796  0.63507445  0.29525002     0.18700
N186        N  0.19956850  0.67348151  0.42936391     0.76200
H187        H  0.26986726  0.65098655  0.38742769     0.10200
C188        C  0.30780485  0.62574826  0.27478684     0.03900
C189        C  0.34705457  0.60469343  0.26275962    -0.04800
C190        C  0.36533760  0.57055635  0.28787674    -0.23200
C191        C  0.34266531  0.55574206  0.32441418     0.13100
C192        C  0.30262746  0.57569456  0.33570884    -0.12400
N193        N  0.29341580  0.66402731  0.25140224     0.64800
H194        H  0.36509818  0.61728097  0.23540409     0.12700
N195        N  0.35954712  0.52001982  0.34983138     0.61500
H196        H  0.28517227  0.56368897  0.36364959     0.08800
O197        O  0.20861775  0.64343048  0.45628340    -0.40000
O198        O  0.20326393  0.71348879  0.44143987    -0.39200
O199        O  0.20956246  0.56656422  0.25427703    -0.39200
O200        O  0.19145549  0.62948766  0.22474571    -0.36900
O201        O  0.38037164  0.52829061  0.38483237    -0.37800
O202        O  0.34753858  0.48061826  0.34097478    -0.33900
O203        O  0.29342632  0.70147375  0.27012700    -0.35400
O204        O  0.28900755  0.66204634  0.21077506    -0.39600
C205        C  0.69838395  0.56374032  0.23767029    -0.13300
C206        C  0.70666547  0.55973676  0.19346293     0.17000
C207        C  0.67195688  0.54673245  0.16484916     0.03300
C208        C  0.62921663  0.53944938  0.18056428    -0.11800
C209        C  0.62023677  0.54461917  0.22482152    -0.02900
C210        C  0.65576876  0.55620304  0.25359748     0.02600
C211        C  0.75237664  0.56707555  0.17832196     0.09400
N212        N  0.67979602  0.54017676  0.11986574     0.65800
H213        H  0.60280722  0.53042487  0.15773437     0.18700
N214        N  0.64938238  0.56037382  0.29906417     0.76200
H215        H  0.72527665  0.57277707  0.25998677     0.10200
C216        C  0.76573839  0.60734061  0.15995877     0.03900
C217        C  0.80997361  0.61360367  0.14784556    -0.04800
C218        C  0.84217722  0.57969810  0.15227253    -0.23200
C219        C  0.82808119  0.54021892  0.17411213     0.13100
C220        C  0.78373836  0.53422390  0.18556363    -0.12400
N221        N  0.73519622  0.64312397  0.15541999     0.64800
H222        H  0.81866723  0.64619211  0.13629297     0.12700
N223        N  0.85806852  0.50577045  0.18616863     0.61500
H224        H  0.77389995  0.50377202  0.20141123     0.08800
O225        O  0.64826651  0.59849882  0.31631973    -0.40000
O226        O  0.65307269  0.52657221  0.32267520    -0.39200
O227        O  0.68873319  0.50180391  0.10596766    -0.39200
O228        O  0.66954336  0.57021172  0.09338225    -0.36900
O229        O  0.87533572  0.50718988  0.22368952    -0.37800
O230        O  0.85389283  0.46838348  0.16757796    -0.33900
O231        O  0.72971648  0.66951950  0.18672997    -0.35400
O232        O  0.71982762  0.65278901  0.11848149    -0.39600
C233        C  0.10096158  0.25869716  0.53384610    -0.13300
C234        C  0.10010788  0.26822055  0.57821240     0.17000
C235        C  0.08353456  0.23595568  0.60652650     0.03300
C236        C  0.06905133  0.19448313  0.59028751    -0.11800
C237        C  0.06953241  0.18478495  0.54571945    -0.02900
C238        C  0.08557108  0.21761460  0.51738231     0.02600
C239        C  0.11217739  0.31360138  0.59369546     0.09400
N240        N  0.08082135  0.24509085  0.65179122     0.65800
H241        H  0.05703246  0.16985735  0.61268121     0.18700
N242        N  0.08745806  0.20948489  0.47191546     0.76200
H243        H  0.11296492  0.28364663  0.51176296     0.10200
C244        C  0.15632698  0.32738270  0.60093439     0.03900
C245        C  0.16598506  0.37121099  0.61444626    -0.04800
C246        C  0.13228135  0.40347763  0.62002931    -0.23200
C247        C  0.08719631  0.38742706  0.61401373     0.13100
C248        C  0.07829692  0.34367474  0.60053338    -0.12400
N249        N  0.19181151  0.29667434  0.59618106     0.64800
H250        H  0.20032616  0.37828045  0.62226557     0.12700
N251        N  0.04921690  0.41409864  0.62255647     0.61500
H252        H  0.04405998  0.33288888  0.59568145     0.08800
O253        O  0.12348540  0.19747296  0.45552143    -0.40000
O254        O  0.05571429  0.22148482  0.44758818    -0.39200
O255        O  0.04495814  0.25911397  0.66699955    -0.39200
O256        O  0.11137501  0.23237658  0.67717704    -0.36900
O257        O  0.02867278  0.40692635  0.65698296    -0.37800
O258        O  0.02743657  0.42938270  0.59082032    -0.33900
O259        O  0.21574099  0.29845076  0.56324351    -0.35400
O260        O  0.20371196  0.27309645  0.62780962    -0.39600
C261        C  0.04917740  0.87835079  0.40029567    -0.13300
C262        C  0.05590553  0.84449965  0.43057002     0.17000
C263        C  0.05208568  0.85450447  0.47493482     0.03300
C264        C  0.04303980  0.89816147  0.48818080    -0.11800
C265        C  0.03881807  0.93284087  0.45815117    -0.02900
C266        C  0.04066410  0.92218334  0.41358193     0.02600
C267        C  0.06959268  0.79968264  0.41553102     0.09400
N268        N  0.06070416  0.82155566  0.50708531     0.65800
H269        H  0.04182480  0.90538033  0.52250583     0.18700
N270        N  0.03683919  0.95578732  0.38144059     0.76200
H271        H  0.05194093  0.87094581  0.36611758     0.10200
C272        C  0.04212184  0.76217064  0.41973037     0.03900
C273        C  0.05721098  0.72043219  0.40689858    -0.04800
C274        C  0.10034221  0.71365047  0.39033924    -0.23200
C275        C  0.12706680  0.75283704  0.38384336     0.13100
C276        C  0.11139896  0.79460816  0.39733439    -0.12400
N277        N  0.99836248  0.76588316  0.43635825     0.64800
H278        H  0.03501142  0.69228729  0.41103360     0.12700
N279        N  0.16849510  0.75276873  0.36166416     0.61500
H280        H  0.13201831  0.82389619  0.39290841     0.08800
O281        O  0.00005354  0.96153440  0.36212055    -0.40000
O282        O  0.07146287  0.97393167  0.36716221    -0.39200
O283        O  0.09859354  0.80411053  0.50994699    -0.39200
O284        O  0.03314397  0.81506955  0.53660720    -0.36900
O285        O  0.16857645  0.74407798  0.32174371    -0.37800
O286        O  0.20112334  0.77432979  0.37774421    -0.33900
O287        O  0.96697430  0.77764997  0.41148369    -0.35400
O288        O  0.98949122  0.74818017  0.47201930    -0.39600
C289        C  0.76513020  0.12209634  0.58791282    -0.13300
C290        C  0.78023104  0.08021048  0.57517846     0.17000
C291        C  0.75022302  0.04440467  0.57388775     0.03300
C292        C  0.70628457  0.05072234  0.58569465    -0.11800
C293        C  0.69017431  0.09191389  0.60093809    -0.02900
C294        C  0.72077870  0.12899287  0.59969754     0.02600
C295        C  0.82714876  0.07448534  0.56240023     0.09400
N296        N  0.76346044  0.00145615  0.55917867     0.65800
H297        H  0.68446842  0.02231428  0.58363034     0.18700
N298        N  0.70820899  0.17427355  0.60712962     0.76200
H299        H  0.78793686  0.15020023  0.58782960     0.10200
C300        C  0.84425392  0.09694141  0.52659669     0.03900
C301        C  0.88868857  0.09140418  0.51551838    -0.04800
C302        C  0.91719176  0.06371971  0.53959345    -0.23200
C303        C  0.89990411  0.04110636  0.57550460     0.13100
C304        C  0.85520556  0.04654934  0.58645080    -0.12400
N305        N  0.81655934  0.12474510  0.50053754     0.64800
H306        H  0.90092661  0.10921720  0.48783656     0.12700
N307        N  0.92694282  0.01210948  0.60087023     0.61500
H308        H  0.84240179  0.02915449  0.61414107     0.08800
O309        O  0.69576993  0.19722973  0.57526429    -0.40000
O310        O  0.72460657  0.19457772  0.63966285    -0.39200
O311        O  0.76827289  0.97044563  0.58601277    -0.39200
O312        O  0.76198257  0.99247796  0.51926115    -0.36900
O313        O  0.94517499  0.02643726  0.63541295    -0.37800
O314        O  0.92583505  0.97084908  0.59316850    -0.33900
O315        O  0.82111676  0.16643697  0.50300115    -0.35400
O316        O  0.79307272  0.10774123  0.47032804    -0.39600
C317        C  0.56640806  0.02631962  0.69166357    -0.13300
C318        C  0.59778305  0.99962175  0.71232110     0.17000
C319        C  0.64219185  0.00209799  0.69976375     0.03300
C320        C  0.65466223  0.03089403  0.66681370    -0.11800
C321        C  0.62360756  0.05812332  0.64464343    -0.02900
C322        C  0.57848223  0.05567174  0.65873453     0.02600
C323        C  0.58458903  0.97110471  0.74880636     0.09400
N324        N  0.67579101  0.97757885  0.72219427     0.65800
H325        H  0.68983846  0.03382122  0.66175585     0.18700
N326        N  0.54490553  0.08523714  0.64305339     0.76200
H327        H  0.53228075  0.02538022  0.70212540     0.10200
C328        C  0.58268091  0.98841343  0.79081771     0.03900
C329        C  0.57683841  0.95983141  0.82559718    -0.04800
C330        C  0.57205159  0.91305172  0.82031105    -0.23200
C331        C  0.56967287  0.89658175  0.77658057     0.13100
C332        C  0.57656764  0.92575605  0.74194795    -0.12400
N333        N  0.58841776  0.03497470  0.79888741     0.64800
H334        H  0.57751557  0.97443268  0.85772638     0.12700
N335        N  0.56181887  0.85098404  0.76539689     0.61500
H336        H  0.57701320  0.91249926  0.70926657     0.08800
O337        O  0.52094342  0.07392117  0.61081844    -0.40000
O338        O  0.53063629  0.11463519  0.66844908    -0.39200
O339        O  0.69538254  0.94654265  0.70290150    -0.39200
O340        O  0.69152062  0.99224385  0.75772107    -0.36900
O341        O  0.52491557  0.84038857  0.74793654    -0.37800
O342        O  0.59446995  0.82585616  0.75959760    -0.33900
O343        O  0.55473138  0.05933231  0.80191282    -0.35400
O344        O  0.62612791  0.05014607  0.81025794    -0.39600
C345        C  0.41744469  0.26069776  0.31270875    -0.13300
C346        C  0.45824862  0.28008965  0.32495824     0.17000
C347        C  0.48903124  0.25460415  0.34830776     0.03300
C348        C  0.47850312  0.21095464  0.35941291    -0.11800
C349        C  0.43694877  0.19054947  0.34843223    -0.02900
C350        C  0.40706367  0.21638708  0.32241951     0.02600
C351        C  0.46819291  0.32690149  0.31313173     0.09400
N352        N  0.53234315  0.27173569  0.35916572     0.65800
H353        H  0.50490829  0.19273551  0.37509553     0.18700
N354        N  0.36728635  0.19833097  0.30282404     0.76200
H355        H  0.39342936  0.27991872  0.29444480     0.10200
C356        C  0.46305576  0.34175525  0.27023824     0.03900
C357        C  0.47055607  0.38648860  0.26065775    -0.04800
C358        C  0.48378364  0.41736832  0.29293178    -0.23200
C359        C  0.48973902  0.40225828  0.33580172     0.13100
C360        C  0.48150787  0.35753940  0.34549039    -0.12400
N361        N  0.45098930  0.31169168  0.23580738     0.64800
H362        H  0.46605359  0.39696444  0.22745431     0.12700
N363        N  0.50327269  0.43181117  0.37010219     0.61500
H364        H  0.48479905  0.34687390  0.37874215     0.08800
O365        O  0.36831671  0.18743534  0.26336975    -0.40000
O366        O  0.33036291  0.20923335  0.31806998    -0.39200
O367        O  0.54316379  0.27864623  0.39829072    -0.39200
O368        O  0.56193967  0.27200762  0.33089675    -0.36900
O369        O  0.47427532  0.44993720  0.39304644    -0.37800
O370        O  0.54347913  0.43308227  0.38244269    -0.33900
O371        O  0.41420993  0.31596804  0.21603840    -0.35400
O372        O  0.47988414  0.28626804  0.22044593    -0.39600
C373        C  0.50211704  0.13258832  0.46430900    -0.13300
C374        C  0.53148604  0.09876826  0.45426647     0.17000
C375        C  0.52582764  0.07530217  0.41514591     0.03300
C376        C  0.49220824  0.08768227  0.38560675    -0.11800
C377        C  0.46424511  0.12432889  0.39369000    -0.02900
C378        C  0.46870846  0.14529376  0.43535896     0.02600
C379        C  0.56708276  0.08935057  0.48633410     0.09400
N380        N  0.55418837  0.03914346  0.40479216     0.65800
H381        H  0.48761374  0.06723636  0.35706454     0.18700
N382        N  0.43944694  0.17945212  0.44954558     0.76200
H383        H  0.50524194  0.14961359  0.49529873     0.10200
C384        C  0.59952163  0.12181647  0.49589284     0.03900
C385        C  0.62475499  0.11904427  0.53391290    -0.04800
C386        C  0.61662774  0.08622330  0.56528097    -0.23200
C387        C  0.58981838  0.04895010  0.55118099     0.13100
C388        C  0.56416468  0.05193537  0.51270833    -0.12400
N389        N  0.60451095  0.16002101  0.46915165     0.64800
H390        H  0.64763548  0.14560519  0.54082871     0.12700
N391        N  0.58954131  0.00716033  0.57310541     0.61500
H392        H  0.54088298  0.02550712  0.50408506     0.08800
O393        O  0.41013184  0.16937053  0.47643330    -0.40000
O394        O  0.45201999  0.21950840  0.44757925    -0.39200
O395        O  0.54006095  0.99971296  0.40802206    -0.39200
O396        O  0.59029054  0.04661718  0.38606591    -0.36900
O397        O  0.55315927  0.99177050  0.58627065    -0.37800
O398        O  0.62024548  0.98011171  0.56565930    -0.33900
O399        O  0.58687383  0.19621906  0.48000196    -0.35400
O400        O  0.63308285  0.15985277  0.43991596    -0.39600
C401        C  0.25027297  0.08707033  0.47983072    -0.13300
C402        C  0.25609920  0.09891485  0.43658556     0.17000
C403        C  0.22017462  0.09517604  0.40707036     0.03300
C404        C  0.17854130  0.08182891  0.42144705    -0.11800
C405        C  0.17182699  0.07118704  0.46507212    -0.02900
C406        C  0.20858310  0.07301506  0.49426936     0.02600
C407        C  0.30066566  0.11122482  0.42156017     0.09400
N408        N  0.22583570  0.10360460  0.36210976     0.65800
H409        H  0.15123603  0.08001135  0.39810312     0.18700
N410        N  0.20420822  0.06120809  0.53859018     0.76200
H411        H  0.27828123  0.08859656  0.50239325     0.10200
C412        C  0.31343807  0.15557624  0.41457745     0.03900
C413        C  0.35504447  0.16518796  0.39708889    -0.04800
C414        C  0.38413465  0.13101440  0.38465598    -0.23200
C415        C  0.37156504  0.08632986  0.39525063     0.13100
C416        C  0.33026992  0.07729920  0.41294305    -0.12400
N417        N  0.28460423  0.19121073  0.42545929     0.64800
H418        H  0.36439427  0.19971411  0.39383092     0.12700
N419        N  0.39986074  0.04917210  0.38790576     0.61500
H420        H  0.32084606  0.04311511  0.41924886     0.08800
O421        O  0.20076126  0.09130216  0.56695058    -0.40000
O422        O  0.21150649  0.02175457  0.55005834    -0.39200
O423        O  0.23905394  0.07281013  0.33774887    -0.39200
O424        O  0.20964873  0.13820309  0.34558240    -0.36900
O425        O  0.41995746  0.03247587  0.41997744    -0.37800
O426        O  0.39311999  0.02519048  0.35469703    -0.33900
O427        O  0.29051806  0.21190900  0.46078276    -0.35400
O428        O  0.25855349  0.20671753  0.39704955    -0.39600
C429        C  0.43200014  0.87445701  0.01560861    -0.13300
C430        C  0.44371323  0.91492293  0.99735869     0.17000
C431        C  0.42335925  0.95368795  0.01255905     0.03300
C432        C  0.39652231  0.95167396  0.04921741    -0.11800
C433        C  0.39253150  0.91238289  0.07377034    -0.02900
C434        C  0.40657041  0.87212376  0.05260492     0.02600
C435        C  0.47833586  0.91425408  0.96377934     0.09400
N436        N  0.43152827  0.99561925  0.99283467     0.65800
H437        H  0.38187954  0.98205471  0.06039606     0.18700
N438        N  0.39449577  0.82811043  0.06584119     0.76200
H439        H  0.44379142  0.84379934  0.00136533     0.10200
C440        C  0.51816941  0.89182422  0.97224005     0.03900
C441        C  0.54659148  0.88210556  0.93879004    -0.04800
C442        C  0.54006636  0.89798799  0.89640028    -0.23200
C443        C  0.49928078  0.92115361  0.88791438     0.13100
C444        C  0.46933603  0.92884275  0.92166344    -0.12400
N445        N  0.53055295  0.87873967  0.01519168     0.64800
H446        H  0.57574491  0.86438887  0.94697577     0.12700
N447        N  0.48518226  0.93442746  0.84550087     0.61500
H448        H  0.43786959  0.94435894  0.91434872     0.08800
O449        O  0.36258295  0.80891832  0.04596348    -0.40000
O450        O  0.42459570  0.80384285  0.08156577    -0.39200
O451        O  0.40250778  0.01185059  0.96773663    -0.39200
O452        O  0.46346359  0.01972862  0.00644850    -0.36900
O453        O  0.46355813  0.90712097  0.82188464    -0.37800
O454        O  0.48126805  0.97536845  0.83792022    -0.33900
O455        O  0.53453718  0.83807383  0.02393357    -0.35400
O456        O  0.54482399  0.90769585  0.04193353    -0.39600
C457        C  0.38749931  0.98736652  0.22303153    -0.13300
C458        C  0.41415220  0.02249002  0.20954896     0.17000
C459        C  0.43364687  0.01920579  0.16868136     0.03300
C460        C  0.42240681  0.98311871  0.14096477    -0.11800
C461        C  0.38864009  0.95186038  0.15145703    -0.02900
C462        C  0.37318710  0.95383289  0.19480915     0.02600
C463        C  0.41875148  0.06131696  0.23967742     0.09400
N464        N  0.46399091  0.05243149  0.15429891     0.65800
H465        H  0.44046149  0.98058748  0.11142609     0.18700
N466        N  0.34157532  0.92298039  0.21120168     0.76200
H467        H  0.37514049  0.98722873  0.25569409     0.10200
C468        C  0.38071436  0.07707095  0.26028207     0.03900
C469        C  0.38493125  0.10156247  0.29823580    -0.04800
C470        C  0.42664001  0.11508924  0.31587379    -0.23200
C471        C  0.46405504  0.10792161  0.28902740     0.13100
C472        C  0.46028810  0.07846576  0.25329796    -0.12400
N473        N  0.33702628  0.06852164  0.24297993     0.64800
H474        H  0.35415754  0.11105062  0.31295378     0.12700
N475        N  0.50567432  0.13030187  0.29673822     0.61500
H476        H  0.48997103  0.06879739  0.23667109     0.08800
O477        O  0.35449413  0.89627014  0.23998647    -0.40000
O478        O  0.30105155  0.93327193  0.20962281    -0.39200
O479        O  0.50506434  0.04446601  0.15461252    -0.39200
O480        O  0.44942642  0.08512369  0.13325469    -0.36900
O481        O  0.51040128  0.16905143  0.28214840    -0.37800
O482        O  0.54003125  0.10757386  0.30384149    -0.33900
O483        O  0.31018158  0.04528495  0.26424330    -0.35400
O484        O  0.32203259  0.09372056  0.21387159    -0.39600
C485        C  0.47176660  0.73071414  0.17179879    -0.13300
C486        C  0.45113030  0.75816372  0.20199830     0.17000
C487        C  0.44902291  0.74483587  0.24535199     0.03300
C488        C  0.46567961  0.70339184  0.25750678    -0.11800
C489        C  0.48410815  0.67470090  0.22676343    -0.02900
C490        C  0.48832675  0.68929413  0.18377582     0.02600
C491        C  0.42960889  0.79911439  0.18661883     0.09400
N492        N  0.42906346  0.77258811  0.27703714     0.65800
H493        H  0.46189074  0.69266514  0.29058123     0.18700
N494        N  0.50843242  0.66205585  0.15169603     0.76200
H495        H  0.47371633  0.74089924  0.13837414     0.10200
C496        C  0.45496375  0.83415167  0.17060103     0.03900
C497        C  0.43388476  0.86970038  0.15079529    -0.04800
C498        C  0.38692046  0.87172885  0.14464768    -0.23200
C499        C  0.36132345  0.83578842  0.16196011     0.13100
C500        C  0.38322900  0.80057294  0.18286463    -0.12400
N501        N  0.50243452  0.83291142  0.17188512     0.64800
H502        H  0.45503498  0.89559477  0.13803580     0.12700
N503        N  0.31401025  0.83215139  0.15792266     0.61500
H504        H  0.36373375  0.77293216  0.19474181     0.08800
O505        O  0.54986040  0.66440882  0.14664056    -0.40000
O506        O  0.48432974  0.64210110  0.12371197    -0.39200
O507        O  0.39016122  0.76408004  0.28913888    -0.39200
O508        O  0.45264793  0.80068423  0.29783167    -0.36900
O509        O  0.29788452  0.80123175  0.13442243    -0.37800
O510        O  0.29065181  0.84671682  0.18816469    -0.33900
O511        O  0.52298823  0.82244841  0.13820496    -0.35400
O512        O  0.52354002  0.85019427  0.20353124    -0.39600
C513        C  0.74960908  0.47234087  0.81324089    -0.13300
C514        C  0.75523721  0.42923876  0.82976005     0.17000
C515        C  0.71716022  0.40285694  0.83737564     0.03300
C516        C  0.67497871  0.41954865  0.82810831    -0.11800
C517        C  0.66961683  0.46147420  0.80943257    -0.02900
C518        C  0.70729093  0.48816500  0.80212673     0.02600
C519        C  0.80054186  0.41325909  0.84144324     0.09400
N520        N  0.72075865  0.35812553  0.85228748     0.65800
H521        H  0.64627439  0.39823955  0.83290756     0.18700
N522        N  0.70302281  0.53160460  0.78432083     0.76200
H523        H  0.77811943  0.49397403  0.80908162     0.10200
C524        C  0.83669626  0.41854375  0.81387399     0.03900
C525        C  0.87935552  0.40641360  0.82774909    -0.04800
C526        C  0.88760469  0.38552326  0.86799547    -0.23200
C527        C  0.85029976  0.38107157  0.89578495     0.13100
C528        C  0.80820393  0.39522719  0.88232178    -0.12400
N529        N  0.83076149  0.43604479  0.77133624     0.64800
H530        H  0.90571821  0.41485190  0.80631657     0.12700
N531        N  0.85459183  0.36659096  0.93956236     0.61500
H532        H  0.78135918  0.39341444  0.90503118     0.08800
O533        O  0.71317953  0.53822000  0.74553465    -0.40000
O534        O  0.69633571  0.56435770  0.80901694    -0.39200
O535        O  0.70305563  0.34707049  0.88726487    -0.39200
O536        O  0.73560319  0.32845281  0.82755588    -0.36900
O537        O  0.85320982  0.39574278  0.96896402    -0.37800
O538        O  0.84276811  0.32755113  0.94874071    -0.33900
O539        O  0.85026150  0.47167468  0.76120597    -0.35400
O540        O  0.81173783  0.41262168  0.74227839    -0.39600
C541        C  0.61453924  0.30065010  0.67672526    -0.13300
C542        C  0.58898013  0.26457140  0.69036851     0.17000
C543        C  0.55442580  0.27176863  0.71952909     0.03300
C544        C  0.54536695  0.31510289  0.73390691    -0.11800
C545        C  0.57043281  0.35155584  0.71953781    -0.02900
C546        C  0.60600037  0.34376875  0.69132324     0.02600
C547        C  0.59857298  0.22008899  0.67236802     0.09400
N548        N  0.52813751  0.23547576  0.73446660     0.65800
H549        H  0.51826545  0.32029645  0.75582497     0.18700
N550        N  0.63506519  0.37897700  0.67866687     0.76200
H551        H  0.64160726  0.29518975  0.65479076     0.10200
C552        C  0.57993540  0.20656683  0.63255200     0.03900
C553        C  0.59310157  0.16676311  0.61332963    -0.04800
C554        C  0.62593680  0.13911467  0.63247975    -0.23200
C555        C  0.64236036  0.15225077  0.67456673     0.13100
C556        C  0.62910388  0.19259534  0.69333242    -0.12400
N557        N  0.54662726  0.23268161  0.61154573     0.64800
H558        H  0.57493371  0.15709905  0.58434376     0.12700
N559        N  0.67061231  0.12424676  0.70003615     0.61500
H560        H  0.64294938  0.20261079  0.72457859     0.08800
O561        O  0.63405660  0.39233651  0.64012370    -0.40000
O562        O  0.66624396  0.39159992  0.70392155    -0.39200
O563        O  0.53757729  0.21805268  0.77039677    -0.39200
O564        O  0.49141036  0.22637321  0.71592664    -0.36900
O565        O  0.71212706  0.12592547  0.69556845    -0.37800
O566        O  0.65547355  0.10725327  0.73390343    -0.33900
O567        O  0.55710765  0.25787647  0.58094238    -0.35400
O568        O  0.50616215  0.22529265  0.61885037    -0.39600
C569        C  0.59411373  0.75526823  0.86407903    -0.13300
C570        C  0.55496899  0.74106062  0.84307687     0.17000
C571        C  0.52198166  0.77219016  0.83383319     0.03300
C572        C  0.53019762  0.81732748  0.84197281    -0.11800
C573        C  0.57156552  0.83359646  0.85821872    -0.02900
C574        C  0.60207103  0.80044507  0.87393875     0.02600
C575        C  0.54961043  0.69397493  0.82940431     0.09400
N576        N  0.47968767  0.75836286  0.81640010     0.65800
H577        H  0.50419562  0.84018617  0.83377597     0.18700
N578        N  0.63836314  0.80988169  0.90358962     0.76200
H579        H  0.61834934  0.73076851  0.87399836     0.10200
C580        C  0.55744581  0.68154826  0.78641623     0.03900
C581        C  0.55199954  0.63723660  0.77333755    -0.04800
C582        C  0.54022730  0.60387995  0.80276775    -0.23200
C583        C  0.53285245  0.61644335  0.84627795     0.13100
C584        C  0.53712614  0.66136343  0.85904552    -0.12400
N585        N  0.57353113  0.71328660  0.75624195     0.64800
H586        H  0.55868520  0.62881344  0.73999919     0.12700
N587        N  0.52306275  0.58406624  0.87829232     0.61500
H588        H  0.53154901  0.67070219  0.89238241     0.08800
O589        O  0.67716512  0.79983706  0.89265371    -0.40000
O590        O  0.63054775  0.81089193  0.94345989    -0.39200
O591        O  0.44761198  0.75266372  0.84141474    -0.39200
O592        O  0.47257218  0.75878108  0.77608784    -0.36900
O593        O  0.55451571  0.56615685  0.89910481    -0.37800
O594        O  0.48390829  0.58015484  0.89160400    -0.33900
O595        O  0.61449656  0.72251354  0.75585421    -0.35400
O596        O  0.54860715  0.72596321  0.72557757    -0.39600
C597        C  0.35293965  0.43348192  0.69827032    -0.13300
C598        C  0.33757859  0.46544956  0.66900650     0.17000
C599        C  0.36712829  0.49911863  0.65562955     0.03300
C600        C  0.41082000  0.50090541  0.67273599    -0.11800
C601        C  0.42516663  0.47038051  0.70407523    -0.02900
C602        C  0.39603894  0.43568254  0.71587644     0.02600
C603        C  0.28906140  0.46631932  0.65914858     0.09400
N604        N  0.35241079  0.53359285  0.62745632     0.65800
H605        H  0.43278724  0.52768293  0.66325330     0.18700
N606        N  0.40982525  0.40207692  0.74549278     0.76200
H607        H  0.33063816  0.40736027  0.70870561     0.10200
C608        C  0.27014908  0.45842269  0.61785391     0.03900
C609        C  0.22364879  0.45646365  0.61241651    -0.04800
C610        C  0.19453443  0.45944148  0.64788135    -0.23200
C611        C  0.21486366  0.47101486  0.68918496     0.13100
C612        C  0.26109121  0.47347983  0.69372988    -0.12400
N613        N  0.29747678  0.44905324  0.58176094     0.64800
H614        H  0.21001574  0.44968086  0.58031521     0.12700
N615        N  0.19070314  0.48301226  0.72693321     0.61500
H616        H  0.27562365  0.48147553  0.72526593     0.08800
O617        O  0.42929037  0.36805688  0.73152693    -0.40000
O618        O  0.39553917  0.40245639  0.78354094    -0.39200
O619        O  0.33115770  0.56586664  0.64273104    -0.39200
O620        O  0.36850031  0.53660802  0.59025901    -0.36900
O621        O  0.19737894  0.46158504  0.76133026    -0.37800
O622        O  0.17432971  0.52130243  0.72973515    -0.33900
O623        O  0.31365061  0.41075279  0.57759046    -0.35400
O624        O  0.29753503  0.47515665  0.55007042    -0.39600
C625        C  0.90555638  0.79894190  0.07580747    -0.13300
C626        C  0.92701433  0.76192462  0.05887232     0.17000
C627        C  0.95769261  0.76763558  0.02560654     0.03300
C628        C  0.96652759  0.81038166  0.00982443    -0.11800
C629        C  0.94595507  0.84788819  0.02762561    -0.02900
C630        C  0.91480896  0.84166800  0.06082923     0.02600
C631        C  0.91846707  0.71805413  0.07829064     0.09400
N632        N  0.98143035  0.73058181  0.00894050     0.65800
H633        H  0.99059579  0.81437230  0.98456592     0.18700
N634        N  0.89154076  0.87816168  0.07931801     0.76200
H635        H  0.88193072  0.79467486  0.10144831     0.10200
C636        C  0.93875803  0.70699875  0.11772347     0.03900
C637        C  0.92966452  0.66610823  0.13662197    -0.04800
C638        C  0.89889310  0.63483018  0.11794984    -0.23200
C639        C  0.87871219  0.64687489  0.07736271     0.13100
C640        C  0.88856729  0.68806302  0.05846977    -0.12400
N641        N  0.96998291  0.73670174  0.13853584     0.64800
H642        H  0.94957409  0.65890166  0.16495540     0.12700
N643        N  0.84955944  0.61722617  0.05365380     0.61500
H644        H  0.87286142  0.69658961  0.02785617     0.08800
O645        O  0.90870789  0.89892193  0.11121606    -0.40000
O646        O  0.85054805  0.88215355  0.07118934    -0.39200
O647        O  0.97113593  0.71474661  0.97215200    -0.39200
O648        O  0.01654346  0.71806429  0.02797278    -0.36900
O649        O  0.80831343  0.62423583  0.05378532    -0.37800
O650        O  0.86508012  0.59526947  0.02259312    -0.33900
O651        O  0.95850831  0.75905006  0.17107253    -0.35400
O652        O  0.01044542  0.73521607  0.12887014    -0.39600
C653        C  0.70570748  0.90348638  0.87103339    -0.13300
C654        C  0.71081626  0.92907528  0.90866149     0.17000
C655        C  0.67290612  0.94248062  0.93066454     0.03300
C656        C  0.63088760  0.92816859  0.91603469    -0.11800
C657        C  0.62476549  0.89940301  0.87967210    -0.02900
C658        C  0.66368982  0.88976231  0.85559674     0.02600
C659        C  0.75602323  0.94291591  0.92328407     0.09400
N660        N  0.67618996  0.97342487  0.96601607     0.65800
H661        H  0.60308405  0.94269160  0.93220481     0.18700
N662        N  0.66167663  0.86867312  0.81399086     0.76200
H663        H  0.73475389  0.89469653  0.85280199     0.10200
C664        C  0.77341765  0.93079891  0.96414117     0.03900
C665        C  0.81644557  0.94442655  0.97651679    -0.04800
C666        C  0.84354357  0.96760520  0.94792488    -0.23200
C667        C  0.82611608  0.97977693  0.90719840     0.13100
C668        C  0.78240485  0.96794231  0.89544846    -0.12400
N669        N  0.74945833  0.90147875  0.99166873     0.64800
H670        H  0.82997506  0.93399850  0.00742361     0.12700
N671        N  0.85188957  0.00518245  0.87795323     0.61500
H672        H  0.76916083  0.97777703  0.86415947     0.08800
O673        O  0.67072412  0.82793257  0.81099113    -0.40000
O674        O  0.66750966  0.89264287  0.78131497    -0.39200
O675        O  0.68766814  0.01314248  0.95906571    -0.39200
O676        O  0.65984956  0.96351193  0.00194313    -0.36900
O677        O  0.87223657  0.98551340  0.84823682    -0.37800
O678        O  0.84568604  0.04650952  0.87549709    -0.33900
O679        O  0.74060967  0.86233103  0.97896470    -0.35400
O680        O  0.74466616  0.91160313  0.03095265    -0.39600
C681        C  0.25170811  0.96551016  0.10272417    -0.13300
C682        C  0.22913250  0.93083070  0.08143330     0.17000
C683        C  0.25208768  0.89147474  0.07301623     0.03300
C684        C  0.29668574  0.88743157  0.08622210    -0.11800
C685        C  0.31996658  0.92089726  0.10984196    -0.02900
C686        C  0.29641699  0.96194873  0.11572967     0.02600
C687        C  0.18356585  0.93885876  0.06378163     0.09400
N688        N  0.23057563  0.85501695  0.05093748     0.65800
H689        H  0.31281123  0.85807580  0.07795015     0.18700
N690        N  0.31680713  0.00224230  0.13142705     0.76200
H691        H  0.23526408  0.99693398  0.10695671     0.10200
C692        C  0.14898467  0.95286139  0.09057166     0.03900
C693        C  0.10726298  0.96289569  0.07247965    -0.04800
C694        C  0.09892605  0.95955369  0.02763776    -0.23200
C695        C  0.13416826  0.94696510  0.00070652     0.13100
C696        C  0.17579225  0.93658472  0.01893909    -0.12400
N697        N  0.15543607  0.95607014  0.13639612     0.64800
H698        H  0.08096545  0.97240528  0.09396025     0.12700
N699        N  0.12885569  0.94590757  0.95471738     0.61500
H700        H  0.20260463  0.92782626  0.99776847     0.08800
O701        O  0.30275340  0.01893355  0.16597664    -0.40000
O702        O  0.33535671  0.02765223  0.10491157    -0.39200
O703        O  0.24229812  0.84431578  0.01340146    -0.39200
O704        O  0.20533230  0.82939356  0.07145900    -0.36900
O705        O  0.13490933  0.98104219  0.93355936    -0.37800
O706        O  0.12648875  0.90901304  0.93504701    -0.33900
O707        O  0.15771684  0.99382157  0.15446577    -0.35400
O708        O  0.15113565  0.92179510  0.15919281    -0.39600
C709        C  0.97524826  0.15448428  0.88872259    -0.13300
C710        C  0.97788141  0.18777556  0.92073398     0.17000
C711        C  0.98704590  0.17584596  0.96389200     0.03300
C712        C  0.99213820  0.13103478  0.97443092    -0.11800
C713        C  0.98709559  0.09726972  0.94292428    -0.02900
C714        C  0.97987854  0.10949105  0.89935050     0.02600
C715        C  0.96775910  0.23432059  0.90910318     0.09400
N716        N  0.98725923  0.20833501  0.99794663     0.65800
H717        H  0.99755519  0.12249461  0.00807294     0.18700
N718        N  0.97404933  0.07675659  0.86595474     0.76200
H719        H  0.96815024  0.16342303  0.85544803     0.10200
C720        C  0.99986986  0.26825884  0.91234192     0.03900
C721        C  0.98797419  0.31211000  0.90353598    -0.04800
C722        C  0.94401995  0.32414702  0.89144909    -0.23200
C723        C  0.91254346  0.28818412  0.88443269     0.13100
C724        C  0.92482744  0.24457561  0.89486093    -0.12400
N725        N  0.04508673  0.25853995  0.92334194     0.64800
H726        H  0.01352933  0.33755496  0.90718688     0.12700
N727        N  0.86951924  0.29303932  0.86404760     0.61500
H728        H  0.90066513  0.21784342  0.89063140     0.08800
O729        O  0.00680628  0.06589651  0.84354671    -0.40000
O730        O  0.93533776  0.06670326  0.85266284    -0.39200
O731        O  0.95119114  0.22589146  0.00869308    -0.39200
O732        O  0.02097057  0.21253844  0.02262116    -0.36900
O733        O  0.86697857  0.30255377  0.82450925    -0.37800
O734        O  0.83632890  0.27418637  0.88049231    -0.33900
O735        O  0.06888548  0.23909897  0.89607697    -0.35400
O736        O  0.06316612  0.27599614  0.95659910    -0.39600
loop_ 
_geom_bond_atom_site_label_1 
_geom_bond_atom_site_label_2 
_geom_bond_distance 
_geom_bond_site_symmetry_2 
_ccdc_geom_bond_type 
O1            V9   1.901   1_455  S
O1           C11   1.266       .  A
O2            V9   1.899   1_556  S
O2           C12   1.264       .  A
O3            V9   1.887       .  S
O3           C13   1.261       .  A
O4            V9   1.889   1_546  S
O4           C14   1.263       .  A
O5           V10   1.913   1_545  S
O5           C14   1.267       .  A
O6           V10   1.914       .  S
O6           C13   1.269   1_556  A
O7           V10   1.901       .  S
O7           C12   1.264       .  A
O8           V10   1.905   1_455  S
O8           C11   1.266   1_556  A
V9           V10   2.085   1_554  T
C11         C694   1.491       .  S
C12         C666   1.473       .  S
C13         C629   1.485       .  S
C14         C713   1.486       .  S
O15          V23   1.919       .  S
O15          C25   1.269       .  A
O16          V23   1.910       .  S
O16          C26   1.267       .  A
O17          V23   1.890       .  S
O17          C27   1.262       .  A
O18          V23   1.898       .  S
O18          C28   1.265       .  A
O19          V24   1.909       .  S
O19          C28   1.266       .  A
O20          V24   1.903       .  S
O20          C27   1.265       .  A
O21          V24   1.891       .  S
O21          C26   1.263       .  A
O22          V24   1.889       .  S
O22          C25   1.264       .  A
V23          V24   2.085       .  T
C25         C582   1.494       .  S
C26         C545   1.483       .  S
C27         C517   1.471       .  S
C28         C601   1.484       .  S
C29         C433   1.579       .  S
C29         C461   1.576       .  S
C29         C498   1.569       .  S
C29         C685   1.574       .  S
C30         C349   1.572       .  S
C30         C377   1.566       .  S
C30         C414   1.566       .  S
C30         C470   1.568       .  S
C31         C330   1.571       .  S
C31         C442   1.577       .  S
C31         C573   1.572       .  S
C31         C657   1.574       .  S
C32         C293   1.576       .  S
C32         C321   1.572       .  S
C32         C386   1.572       .  S
C32         C554   1.571       .  S
O33          V41   1.914       .  S
O33          C43   1.268   1_545  A
O34          V41   1.911       .  S
O34          C44   1.268       .  A
O35          V41   1.881       .  S
O35          C45   1.261       .  A
O36          V41   1.891   1_655  S
O36          C46   1.263       .  A
O37          V42   1.916   1_655  S
O37          C46   1.268       .  A
O38          V42   1.914       .  S
O38          C45   1.268       .  A
O39          V42   1.896       .  S
O39          C44   1.263       .  A
O40          V42   1.897   1_565  S
O40          C43   1.265       .  A
V41          V42   2.083       .  T
C43         C265   1.494       .  S
C44         C237   1.488       .  S
C45         C405   1.485       .  S
C46         C302   1.490       .  S
O47          V55   1.905       .  S
O47          C57   1.266       .  A
O48          V55   1.904       .  S
O48          C58   1.266       .  A
O49          V55   1.900       .  S
O49          C59   1.264       .  A
O50          V55   1.903       .  S
O50          C60   1.266       .  A
O51          V56   1.899       .  S
O51          C60   1.266       .  A
O52          V56   1.901       .  S
O52          C59   1.264       .  A
O53          V56   1.888       .  S
O53          C58   1.262       .  A
O54          V56   1.892       .  S
O54          C57   1.264       .  A
V55          V56   2.083       .  T
C57         C358   1.487       .  S
C58         C489   1.475       .  S
C59         C190   1.473       .  S
C60         C209   1.490       .  S
C61         C134   1.559       .  S
C61         C162   1.582       .  S
C61         C246   1.596       .  S
C61         C610   1.580       .  S
C62          C97   1.576       .  S
C62         C125   1.586       .  S
C62         C526   1.570       .  S
C62         C722   1.564       .  S
C63          C69   1.582       .  S
C63         C153   1.578       .  S
C63         C181   1.570       .  S
C63         C274   1.572       .  S
C64          C78   1.565       .  S
C64         C106   1.564       .  S
C64         C218   1.582       .  S
C64         C638   1.579       .  S
C65          C66   1.391       .  A
C65          C70   1.397       .  A
C65          H75   1.085       .  S
C66          C71   1.472   1_455  S
C66          C67   1.396       .  A
C67          C68   1.400       .  A
C67          N72   1.429   1_455  S
C68          C69   1.424       .  A
C68          H73   1.077       .  S
C69          C70   1.434       .  A
C70          N74   1.429       .  S
C71          C76   1.397       .  A
C71          C80   1.397       .  A
N72          O87   1.262   1_655  A
N72          O88   1.261       .  A
N74          O85   1.262       .  A
N74          O86   1.262       .  A
C76          C77   1.390       .  A
C76          N81   1.429       .  S
C77          C78   1.420       .  A
C77          H82   1.083       .  S
C78          C79   1.437       .  A
C79          C80   1.407       .  A
C79          N83   1.437       .  S
C80          H84   1.084   1_655  S
N81          O91   1.262       .  A
N81          O92   1.262       .  A
N83          O89   1.263   1_655  A
N83          O90   1.260       .  A
C93          C94   1.395   1_554  A
C93          C98   1.405   1_554  A
C93         H103   1.084       .  S
C94          C99   1.476   1_556  S
C94          C95   1.398       .  A
C95          C96   1.393       .  A
C95         N100   1.429       .  S
C96          C97   1.423       .  A
C96         H101   1.084       .  S
C97          C98   1.438       .  A
C98         N102   1.428       .  S
C99         C104   1.399       .  A
C99         C108   1.395       .  A
N100        O115   1.262       .  A
N100        O116   1.262       .  A
N102        O113   1.261       .  A
N102        O114   1.262       .  A
C104        C105   1.390       .  A
C104        N109   1.427       .  S
C105        C106   1.415       .  A
C105        H110   1.075       .  S
C106        C107   1.440       .  A
C107        C108   1.405       .  A
C107        N111   1.433       .  S
C108        H112   1.084       .  S
N109        O119   1.262       .  A
N109        O120   1.262       .  A
N111        O117   1.262       .  A
N111        O118   1.261   1_655  A
C121        C122   1.393       .  A
C121        C126   1.400   1_455  A
C121        H131   1.085       .  S
C122        C127   1.475       .  S
C122        C123   1.396       .  A
C123        C124   1.399       .  A
C123        N128   1.428       .  S
C124        C125   1.426   1_455  A
C124        H129   1.079       .  S
C125        C126   1.433       .  A
C126        N130   1.428       .  S
C127        C132   1.395       .  A
C127        C136   1.401       .  A
N128        O143   1.262       .  A
N128        O144   1.262       .  A
N130        O141   1.263       .  A
N130        O142   1.262       .  A
C132        C133   1.387       .  A
C132        N137   1.430       .  S
C133        C134   1.422       .  A
C133        H138   1.084       .  S
C134        C135   1.433       .  A
C135        C136   1.412       .  A
C135        N139   1.432       .  S
C136        H140   1.084       .  S
N137        O147   1.262       .  A
N137        O148   1.262       .  A
N139        O145   1.261       .  A
N139        O146   1.262       .  A
C149        C150   1.401       .  A
C149        C154   1.398       .  A
C149        H159   1.084       .  S
C150        C155   1.494       .  S
C150        C151   1.406       .  A
C151        C152   1.400       .  A
C151        N156   1.430       .  S
C152        C153   1.422       .  A
C152        H157   1.076       .  S
C153        C154   1.434       .  A
C154        N158   1.433       .  S
C155        C160   1.404       .  A
C155        C164   1.397       .  A
N156        O171   1.262       .  A
N156        O172   1.262       .  A
N158        O169   1.262       .  A
N158        O170   1.262       .  A
C160        C161   1.400       .  A
C160        N165   1.438       .  S
C161        C162   1.422       .  A
C161        H166   1.072       .  S
C162        C163   1.438       .  A
C163        C164   1.405       .  A
C163        N167   1.429       .  S
C164        H168   1.083       .  S
N165        O175   1.262       .  A
N165        O176   1.263       .  A
N167        O173   1.262       .  A
N167        O174   1.261       .  A
C177        C178   1.398       .  A
C177        C182   1.404       .  A
C177        H187   1.084       .  S
C178        C183   1.486       .  S
C178        C179   1.403       .  A
C179        C180   1.399       .  A
C179        N184   1.432       .  S
C180        C181   1.421       .  A
C180        H185   1.074       .  S
C181        C182   1.436       .  A
C182        N186   1.434       .  S
C183        C188   1.411       .  A
C183        C192   1.406       .  A
N184        O199   1.262       .  A
N184        O200   1.262       .  A
N186        O197   1.263       .  A
N186        O198   1.260       .  A
C188        C189   1.402       .  A
C188        N193   1.431       .  S
C189        C190   1.403       .  A
C189        H194   1.084       .  S
C190        C191   1.406       .  A
C191        C192   1.401       .  A
C191        N195   1.429       .  S
C192        H196   1.084       .  S
N193        O203   1.262       .  A
N193        O204   1.262       .  A
N195        O201   1.262       .  A
N195        O202   1.262       .  A
C205        C206   1.400       .  A
C205        C210   1.401       .  A
C205        H215   1.084       .  S
C206        C211   1.478       .  S
C206        C207   1.406       .  A
C207        C208   1.401       .  A
C207        N212   1.429       .  S
C208        C209   1.409       .  A
C208        H213   1.083       .  S
C209        C210   1.416       .  A
C210        N214   1.428       .  S
C211        C216   1.401       .  A
C211        C220   1.390       .  A
N212        O227   1.262       .  A
N212        O228   1.262       .  A
N214        O225   1.262       .  A
N214        O226   1.262       .  A
C216        C217   1.403       .  A
C216        N221   1.429       .  S
C217        C218   1.420       .  A
C217        H222   1.078       .  S
C218        C219   1.437       .  A
C219        C220   1.399       .  A
C219        N223   1.428       .  S
C220        H224   1.084       .  S
N221        O231   1.262       .  A
N221        O232   1.262       .  A
N223        O229   1.262       .  A
N223        O230   1.263       .  A
C233        C234   1.401       .  A
C233        C238   1.403       .  A
C233        H243   1.084       .  S
C234        C239   1.482       .  S
C234        C235   1.408       .  A
C235        C236   1.403       .  A
C235        N240   1.429       .  S
C236        C237   1.407       .  A
C236        H241   1.084       .  S
C237        C238   1.415       .  A
C238        N242   1.428       .  S
C239        C244   1.401       .  A
C239        C248   1.388       .  A
N240        O255   1.262       .  A
N240        O256   1.262       .  A
N242        O253   1.262       .  A
N242        O254   1.262       .  A
C244        C245   1.405       .  A
C244        N249   1.428       .  S
C245        C246   1.423       .  A
C245        H250   1.076       .  S
C246        C247   1.444       .  A
C247        C248   1.399       .  A
C247        N251   1.431       .  S
C248        H252   1.085       .  S
N249        O259   1.262       .  A
N249        O260   1.262       .  A
N251        O257   1.262       .  A
N251        O258   1.262       .  A
C261        C262   1.403       .  A
C261        C266   1.405       .  A
C261        H271   1.084       .  S
C262        C267   1.487       .  S
C262        C263   1.410       .  A
C263        C264   1.403       .  A
C263        N268   1.432       .  S
C264        C265   1.408       .  A
C264        H269   1.084       .  S
C265        C266   1.415       .  A
C266        N270   1.428       .  S
C267        C272   1.401       .  A
C267        C276   1.399       .  A
N268        O283   1.262       .  A
N268        O284   1.262       .  A
N270        O281   1.262       .  A
N270        O282   1.262       .  A
C272        C273   1.397       .  A
C272        N277   1.430   1_455  S
C273        C274   1.422       .  A
C273        H278   1.084       .  S
C274        C275   1.439       .  A
C275        C276   1.409       .  A
C275        N279   1.436       .  S
C276        H280   1.084       .  S
N277        O287   1.262       .  A
N277        O288   1.262       .  A
N279        O285   1.260       .  A
N279        O286   1.263       .  A
C289        C290   1.400       .  A
C289        C294   1.409       .  A
C289        H299   1.084       .  S
C290        C295   1.486       .  S
C290        C291   1.399       .  A
C291        C292   1.394       .  A
C291        N296   1.429       .  S
C292        C293   1.416       .  A
C292        H297   1.073       .  S
C293        C294   1.441       .  A
C294        N298   1.435       .  S
C295        C300   1.407       .  A
C295        C304   1.405       .  A
N296        O311   1.262   1_545  A
N296        O312   1.262   1_545  A
N298        O309   1.261       .  A
N298        O310   1.262       .  A
C300        C301   1.399       .  A
C300        N305   1.429       .  S
C301        C302   1.408       .  A
C301        H306   1.084       .  S
C302        C303   1.414       .  A
C303        C304   1.405       .  A
C303        N307   1.428       .  S
C304        H308   1.084       .  S
N305        O315   1.262       .  A
N305        O316   1.262       .  A
N307        O313   1.262       .  A
N307        O314   1.262   1_545  A
C317        C318   1.395   1_545  A
C317        C322   1.405       .  A
C317        H327   1.084       .  S
C318        C323   1.482       .  S
C318        C319   1.402   1_565  A
C319        C320   1.399       .  A
C319        N324   1.430   1_545  S
C320        C321   1.419       .  A
C320        H325   1.077       .  S
C321        C322   1.437       .  A
C322        N326   1.433       .  S
C323        C328   1.399       .  A
C323        C332   1.397       .  A
N324        O339   1.262       .  A
N324        O340   1.262       .  A
N326        O337   1.261       .  A
N326        O338   1.262       .  A
C328        C329   1.396       .  A
C328        N333   1.429   1_565  S
C329        C330   1.421       .  A
C329        H334   1.083       .  S
C330        C331   1.437       .  A
C331        C332   1.409       .  A
C331        N335   1.428       .  S
C332        H336   1.084       .  S
N333        O343   1.262       .  A
N333        O344   1.262       .  A
N335        O341   1.262       .  A
N335        O342   1.261       .  A
C345        C346   1.398       .  A
C345        C350   1.403       .  A
C345        H355   1.083       .  S
C346        C351   1.487       .  S
C346        C347   1.402       .  A
C347        C348   1.395       .  A
C347        N352   1.430       .  S
C348        C349   1.422       .  A
C348        H353   1.079       .  S
C349        C350   1.434       .  A
C350        N354   1.431       .  S
C351        C356   1.410       .  A
C351        C360   1.404       .  A
N352        O367   1.262       .  A
N352        O368   1.262       .  A
N354        O365   1.262       .  A
N354        O366   1.262       .  A
C356        C357   1.398       .  A
C356        N361   1.430       .  S
C357        C358   1.406       .  A
C357        H362   1.084       .  S
C358        C359   1.415       .  A
C359        C360   1.402       .  A
C359        N363   1.429       .  S
C360        H364   1.083       .  S
N361        O371   1.262       .  A
N361        O372   1.262       .  A
N363        O369   1.262       .  A
N363        O370   1.262       .  A
C373        C374   1.392       .  A
C373        C378   1.392       .  A
C373        H383   1.085       .  S
C374        C379   1.477       .  S
C374        C375   1.402       .  A
C375        C376   1.405       .  A
C375        N380   1.428       .  S
C376        C377   1.417       .  A
C376        H381   1.077       .  S
C377        C378   1.433       .  A
C378        N382   1.432       .  S
C379        C384   1.400       .  A
C379        C388   1.399       .  A
N380        O395   1.262   1_545  A
N380        O396   1.262       .  A
N382        O393   1.262       .  A
N382        O394   1.262       .  A
C384        C385   1.391       .  A
C384        N389   1.431       .  S
C385        C386   1.414       .  A
C385        H390   1.067       .  S
C386        C387   1.434       .  A
C387        C388   1.409       .  A
C387        N391   1.434       .  S
C388        H392   1.083       .  S
N389        O399   1.262       .  A
N389        O400   1.261       .  A
N391        O397   1.262   1_545  A
N391        O398   1.261   1_545  A
C401        C402   1.402       .  A
C401        C406   1.404       .  A
C401        H411   1.084       .  S
C402        C407   1.474       .  S
C402        C403   1.404       .  A
C403        C404   1.395       .  A
C403        N408   1.430       .  S
C404        C405   1.408       .  A
C404        H409   1.084       .  S
C405        C406   1.414       .  A
C406        N410   1.428       .  S
C407        C412   1.405       .  A
C407        C416   1.389       .  A
N408        O423   1.262       .  A
N408        O424   1.262       .  A
N410        O421   1.262       .  A
N410        O422   1.262       .  A
C412        C413   1.404       .  A
C412        N417   1.428       .  S
C413        C414   1.413       .  A
C413        H418   1.080       .  S
C414        C415   1.435       .  A
C415        C416   1.394       .  A
C415        N419   1.432       .  S
C416        H420   1.085       .  S
N417        O427   1.262       .  A
N417        O428   1.261       .  A
N419        O425   1.262       .  A
N419        O426   1.262       .  A
C429        C430   1.392   1_554  A
C429        C434   1.392       .  A
C429        H439   1.085       .  S
C430        C435   1.487       .  S
C430        C431   1.405   1_556  A
C431        C432   1.408       .  A
C431        N436   1.428   1_554  S
C432        C433   1.416       .  A
C432        H437   1.076       .  S
C433        C434   1.443       .  A
C434        N438   1.435       .  S
C435        C440   1.403       .  A
C435        C444   1.401       .  A
N436        O451   1.262   1_565  A
N436        O452   1.262   1_566  A
N438        O449   1.262       .  A
N438        O450   1.262       .  A
C440        C441   1.388       .  A
C440        N445   1.432   1_556  S
C441        C442   1.411       .  A
C441        H446   1.059       .  S
C442        C443   1.439       .  A
C443        C444   1.413       .  A
C443        N447   1.432       .  S
C444        H448   1.081       .  S
N445        O455   1.262       .  A
N445        O456   1.262       .  A
N447        O453   1.261       .  A
N447        O454   1.262       .  A
C457        C458   1.393   1_565  A
C457        C462   1.388       .  A
C457        H467   1.084       .  S
C458        C463   1.491       .  S
C458        C459   1.408       .  A
C459        C460   1.412   1_545  A
C459        N464   1.428       .  S
C460        C461   1.423       .  A
C460        H465   1.076       .  S
C461        C462   1.430       .  A
C462        N466   1.427       .  S
C463        C468   1.407       .  A
C463        C472   1.403       .  A
N464        O479   1.262       .  A
N464        O480   1.262       .  A
N466        O477   1.263       .  A
N466        O478   1.262       .  A
C468        C469   1.384       .  A
C468        N473   1.430       .  S
C469        C470   1.413       .  A
C469        H474   1.081       .  S
C470        C471   1.431       .  A
C471        C472   1.413       .  A
C471        N475   1.431       .  S
C472        H476   1.082       .  S
N473        O483   1.263       .  A
N473        O484   1.262       .  A
N475        O481   1.262       .  A
N475        O482   1.262       .  A
C485        C486   1.401       .  A
C485        C490   1.397       .  A
C485        H495   1.084       .  S
C486        C491   1.476       .  S
C486        C487   1.406       .  A
C487        C488   1.400       .  A
C487        N492   1.428       .  S
C488        C489   1.405       .  A
C488        H493   1.084       .  S
C489        C490   1.412       .  A
C490        N494   1.430       .  S
C491        C496   1.396       .  A
C491        C500   1.400       .  A
N492        O507   1.262       .  A
N492        O508   1.262       .  A
N494        O505   1.262       .  A
N494        O506   1.262       .  A
C496        C497   1.390       .  A
C496        N501   1.430       .  S
C497        C498   1.425       .  A
C497        H502   1.084       .  S
C498        C499   1.436       .  A
C499        C500   1.409       .  A
C499        N503   1.430       .  S
C500        H504   1.084       .  S
N501        O511   1.262       .  A
N501        O512   1.261       .  A
N503        O509   1.262       .  A
N503        O510   1.260       .  A
C513        C514   1.408       .  A
C513        C518   1.402       .  A
C513        H523   1.083       .  S
C514        C519   1.489       .  S
C514        C515   1.413       .  A
C515        C516   1.396       .  A
C515        N520   1.431       .  S
C516        C517   1.401       .  A
C516        H521   1.084       .  S
C517        C518   1.407       .  A
C518        N522   1.429       .  S
C519        C524   1.406       .  A
C519        C528   1.396       .  A
N520        O535   1.262       .  A
N520        O536   1.262       .  A
N522        O533   1.262       .  A
N522        O534   1.262       .  A
C524        C525   1.399       .  A
C524        N529   1.430       .  S
C525        C526   1.418       .  A
C525        H530   1.075       .  S
C526        C527   1.435       .  A
C527        C528   1.398       .  A
C527        N531   1.430       .  S
C528        H532   1.083       .  S
N529        O539   1.262       .  A
N529        O540   1.262       .  A
N531        O537   1.260       .  A
N531        O538   1.260       .  A
C541        C542   1.398       .  A
C541        C546   1.398       .  A
C541        H551   1.084       .  S
C542        C547   1.478       .  S
C542        C543   1.408       .  A
C543        C544   1.405       .  A
C543        N548   1.428       .  S
C544        C545   1.406       .  A
C544        H549   1.084       .  S
C545        C546   1.416       .  A
C546        N550   1.430       .  S
C547        C552   1.398       .  A
C547        C556   1.396       .  A
N548        O563   1.262       .  A
N548        O564   1.262       .  A
N550        O561   1.262       .  A
N550        O562   1.262       .  A
C552        C553   1.397       .  A
C552        N557   1.429       .  S
C553        C554   1.422       .  A
C553        H558   1.077       .  S
C554        C555   1.434       .  A
C555        C556   1.406       .  A
C555        N559   1.433       .  S
C556        H560   1.084       .  S
N557        O567   1.261       .  A
N557        O568   1.262       .  A
N559        O565   1.261       .  A
N559        O566   1.262       .  A
C569        C570   1.395       .  A
C569        C574   1.407       .  A
C569        H579   1.084       .  S
C570        C575   1.481       .  S
C570        C571   1.399       .  A
C571        C572   1.397       .  A
C571        N576   1.429       .  S
C572        C573   1.415       .  A
C572        H577   1.075       .  S
C573        C574   1.443       .  A
C574        N578   1.437       .  S
C575        C580   1.404       .  A
C575        C584   1.403       .  A
N576        O591   1.262       .  A
N576        O592   1.261       .  A
N578        O589   1.262       .  A
N578        O590   1.261       .  A
C580        C581   1.397       .  A
C580        N585   1.430       .  S
C581        C582   1.409       .  A
C581        H586   1.083       .  S
C582        C583   1.418       .  A
C583        C584   1.408       .  A
C583        N587   1.429       .  S
C584        H588   1.084       .  S
N585        O595   1.262       .  A
N585        O596   1.261       .  A
N587        O593   1.262       .  A
N587        O594   1.262       .  A
C597        C598   1.402       .  A
C597        C602   1.398       .  A
C597        H607   1.084       .  S
C598        C603   1.487       .  S
C598        C599   1.412       .  A
C599        C600   1.408       .  A
C599        N604   1.429       .  S
C600        C601   1.406       .  A
C600        H605   1.084       .  S
C601        C602   1.412       .  A
C602        N606   1.429       .  S
C603        C608   1.405       .  A
C603        C612   1.392       .  A
N604        O619   1.262       .  A
N604        O620   1.262       .  A
N606        O617   1.262       .  A
N606        O618   1.262       .  A
C608        C609   1.407       .  A
C608        N613   1.429       .  S
C609        C610   1.422       .  A
C609        H614   1.084       .  S
C610        C611   1.444       .  A
C611        C612   1.397       .  A
C611        N615   1.434       .  S
C612        H616   1.085       .  S
N613        O623   1.262       .  A
N613        O624   1.262       .  A
N615        O621   1.263       .  A
N615        O622   1.260       .  A
C625        C626   1.396       .  A
C625        C630   1.398       .  A
C625        H635   1.084       .  S
C626        C631   1.477       .  S
C626        C627   1.408       .  A
C627        C628   1.405       .  A
C627        N632   1.428       .  S
C628        C629   1.406       .  A
C628        H633   1.084   1_554  S
C629        C630   1.418       .  A
C630        N634   1.430       .  S
C631        C636   1.397       .  A
C631        C640   1.397       .  A
N632        O647   1.261   1_554  A
N632        O648   1.262   1_655  A
N634        O645   1.262       .  A
N634        O646   1.262       .  A
C636        C637   1.394       .  A
C636        N641   1.430       .  S
C637        C638   1.424       .  A
C637        H642   1.077       .  S
C638        C639   1.435       .  A
C639        C640   1.406       .  A
C639        N643   1.432       .  S
C640        H644   1.084       .  S
N641        O651   1.262       .  A
N641        O652   1.262   1_655  A
N643        O649   1.262       .  A
N643        O650   1.262       .  A
C653        C654   1.395       .  A
C653        C658   1.400       .  A
C653        H663   1.084       .  S
C654        C659   1.480       .  S
C654        C655   1.402       .  A
C655        C656   1.397       .  A
C655        N660   1.431       .  S
C656        C657   1.421       .  A
C656        H661   1.078       .  S
C657        C658   1.433       .  A
C658        N662   1.430       .  S
C659        C664   1.411       .  A
C659        C668   1.403       .  A
N660        O675   1.262   1_565  A
N660        O676   1.262   1_556  A
N662        O673   1.261       .  A
N662        O674   1.261       .  A
C664        C665   1.400       .  A
C664        N669   1.432       .  S
C665        C666   1.402       .  A
C665        H670   1.082   1_556  S
C666        C667   1.408       .  A
C667        C668   1.400       .  A
C667        N671   1.427   1_565  S
C668        H672   1.084       .  S
N669        O679   1.262       .  A
N669        O680   1.262   1_556  A
N671        O677   1.262   1_545  A
N671        O678   1.262       .  A
C681        C682   1.393       .  A
C681        C686   1.402       .  A
C681        H691   1.080       .  S
C682        C687   1.489       .  S
C682        C683   1.402       .  A
C683        C684   1.402       .  A
C683        N688   1.429       .  S
C684        C685   1.411       .  A
C684        H689   1.044       .  S
C685        C686   1.442       .  A
C686        N690   1.430   1_565  S
C687        C692   1.410       .  A
C687        C696   1.403       .  A
N688        O703   1.261       .  A
N688        O704   1.262       .  A
N690        O701   1.260       .  A
N690        O702   1.261       .  A
C692        C693   1.401       .  A
C692        N697   1.429       .  S
C693        C694   1.407       .  A
C693        H698   1.083       .  S
C694        C695   1.415       .  A
C695        C696   1.403       .  A
C695        N699   1.429   1_554  S
C696        H700   1.083   1_554  S
N697        O707   1.262       .  A
N697        O708   1.262       .  A
N699        O705   1.262       .  A
N699        O706   1.262       .  A
C709        C710   1.403       .  A
C709        C714   1.403       .  A
C709        H719   1.084       .  S
C710        C715   1.482       .  S
C710        C711   1.408       .  A
C711        C712   1.399       .  A
C711        N716   1.431       .  S
C712        C713   1.406       .  A
C712        H717   1.084   1_556  S
C713        C714   1.414       .  A
C714        N718   1.428       .  S
C715        C720   1.401       .  A
C715        C724   1.395       .  A
N716        O731   1.262   1_556  A
N716        O732   1.262   1_656  A
N718        O729   1.261   1_655  A
N718        O730   1.261       .  A
C720        C721   1.398       .  A
C720        N725   1.430   1_655  S
C721        C722   1.419       .  A
C721        H726   1.083   1_655  S
C722        C723   1.443       .  A
C723        C724   1.405       .  A
C723        N727   1.438       .  S
C724        H728   1.084       .  S
N725        O735   1.262       .  A
N725        O736   1.262       .  A
N727        O733   1.260       .  A
N727        O734   1.263       .  A
