geometry optimzed in LAMMPS
_audit_creation_date              2020-11-30 
_audit_creation_method            'lammps2cif' 
_symmetry_space_group_name_H-M    'P1' 
_symmetry_Int_Tables_number       1 
_symmetry_cell_setting            triclinic 
loop_ 
_symmetry_equiv_pos_as_xyz 
  x,y,z 
_cell_length_a                    65.89019556 
_cell_length_b                    65.81548901870605 
_cell_length_c                    65.6858739052003 
_cell_angle_alpha                 90.12582968860322 
_cell_angle_beta                  90.13251893540149 
_cell_angle_gamma                 89.96560524404119 
loop_ 
_atom_site_label 
_atom_site_type_symbol 
_atom_site_fract_x 
_atom_site_fract_y 
_atom_site_fract_z 
_atom_site_charge 
In1        In  0.82271048  0.41476539  0.70457129     1.36900
C2          C  0.79256119  0.41895029  0.73122756     0.77700
O3          O  0.82751267  0.38572123  0.72185826    -0.60800
O4          O  0.85178591  0.40666173  0.72087196    -0.51700
C5          C  0.82254416  0.39533993  0.66887395     0.70300
O6          O  0.80654962  0.39922053  0.67866205    -0.46500
C7          C  0.82978622  0.45367511  0.69539027     0.75000
O8          O  0.79053051  0.40936359  0.71466530    -0.58400
O9          O  0.84231043  0.44261478  0.70477662    -0.48500
O10         O  0.80978283  0.42692559  0.73362073    -0.54800
C11         C  0.84526501  0.38994170  0.72761062     0.85200
O12         O  0.83846058  0.40211304  0.67709310    -0.56700
O13         O  0.81394167  0.44444224  0.68980559    -0.60000
In14       In  0.91583057  0.31583281  0.80626446     1.36900
C15         C  0.91926175  0.28521089  0.78008883     0.77700
O16         O  0.88740875  0.32307650  0.78867527    -0.60800
O17         O  0.91102869  0.34482743  0.78889429    -0.51700
C18         C  0.89486365  0.31608392  0.84093260     0.79900
O19         O  0.89843422  0.30005852  0.83104096    -0.46500
C20         C  0.95471289  0.32053201  0.81664558     0.75000
O21         O  0.91005087  0.28359090  0.79681883    -0.58400
O22         O  0.94435870  0.33446706  0.80853901    -0.48500
O23         O  0.92701295  0.30244610  0.77709304    -0.54800
C24         C  0.89365848  0.34002973  0.78235425     0.85200
O25         O  0.90286469  0.33177789  0.83349019    -0.56700
O26         O  0.94472814  0.30468523  0.82042518    -0.60000
In27       In  0.70659216  0.41544153  0.82683582     1.36900
C28         C  0.73236562  0.41705798  0.79557554     0.77700
O29         O  0.69233576  0.44373029  0.81439854    -0.60800
O30         O  0.70529773  0.44524391  0.84381904    -0.51700
C31         C  0.67110234  0.39585708  0.82857553     0.70300
O32         O  0.68131992  0.39773365  0.81248658    -0.46500
C33         C  0.72927345  0.39229717  0.85128619     0.75000
O34         O  0.71554493  0.40794991  0.79466171    -0.58400
O35         O  0.72530777  0.41065472  0.85533693    -0.48500
O36         O  0.73580994  0.42549824  0.81247897    -0.54800
C37         C  0.69671044  0.45473413  0.82949140     0.85200
O38         O  0.67878382  0.40466604  0.84384573    -0.56700
O39         O  0.72139093  0.38605810  0.83495923    -0.60000
In40       In  0.80130416  0.31660894  0.92704628     1.36900
C41         C  0.77553769  0.28566536  0.93027301     0.77700
O42         O  0.81842905  0.30860388  0.95561368    -0.60800
O43         O  0.79946438  0.33446840  0.95612923    -0.51700
C44         C  0.83536698  0.31521554  0.90539905     0.70300
O45         O  0.82578185  0.29945711  0.91042386    -0.46500
C46         C  0.77963569  0.34170767  0.90355296     0.75000
O47         O  0.79188222  0.28458197  0.92041070    -0.58400
O48         O  0.78866918  0.34755620  0.91946538    -0.48500
O49         O  0.77267707  0.30258483  0.93885846    -0.54800
C50         C  0.81112878  0.32296152  0.96601549     0.85200
O51         O  0.82809990  0.33143789  0.91255871    -0.56700
O52         O  0.78181841  0.32304875  0.89981681    -0.60000
In53       In  0.58379187  0.30277283  0.82947853     1.36900
C54         C  0.57977207  0.27812252  0.79733308     0.77700
O55         O  0.61080099  0.28254738  0.83373926    -0.60800
O56         O  0.59053787  0.28597504  0.85845344    -0.51700
C57         C  0.60624636  0.33667450  0.83120232     0.70300
O58         O  0.59992542  0.32897892  0.81476905    -0.46500
C59         C  0.54526456  0.31340052  0.83662236     0.75000
O60         O  0.59037534  0.29407467  0.79700210    -0.58400
O61         O  0.55527970  0.30192736  0.84825991    -0.48500
O62         O  0.57052908  0.27539703  0.81388792    -0.54800
C63         C  0.60644896  0.27765740  0.85174064     0.85200
O64         O  0.60009814  0.32754809  0.84686193    -0.56700
O65         O  0.55537267  0.32015865  0.82184598    -0.60000
In66       In  0.68102436  0.19981332  0.92191890     1.36900
C67         C  0.71208331  0.22494037  0.92793209     0.77700
O68         O  0.67625255  0.21976491  0.89463530    -0.60800
O69         O  0.65114600  0.21382547  0.91372691    -0.51700
C70         C  0.68160632  0.16556967  0.90001826     0.70300
O71         O  0.69733283  0.17572846  0.90398633    -0.46500
C72         C  0.67326870  0.19174126  0.96090226     0.75000
O73         O  0.71410163  0.20802568  0.91904999    -0.58400
O74         O  0.66203481  0.20271463  0.94999271    -0.48500
O75         O  0.69427640  0.22860794  0.93375825    -0.54800
C76         C  0.65773187  0.22291000  0.89820628     0.85200
O77         O  0.66571941  0.17243698  0.90820374    -0.56700
O78         O  0.68780799  0.18368774  0.95135675    -0.60000
In79       In  0.81831853  0.30017442  0.58534019     1.36900
C80         C  0.84312869  0.27703095  0.60765073     0.77700
O81         O  0.83507757  0.32671564  0.59864378    -0.60800
O82         O  0.80304548  0.32672588  0.60032316    -0.51700
C83         C  0.82256836  0.30953355  0.54613066     0.70300
O84         O  0.83616732  0.30059859  0.55626463    -0.46500
C85         C  0.78722078  0.27432425  0.58424079     0.75000
O86         O  0.84772466  0.28313079  0.59005361    -0.58400
O87         O  0.78685794  0.29045196  0.59463881    -0.48500
O88         O  0.82606699  0.28319513  0.61374712    -0.54800
C89         C  0.81934545  0.33560996  0.60494562     0.85200
O90         O  0.80720123  0.31441266  0.55641120    -0.56700
O91         O  0.80333437  0.27186779  0.57421771    -0.60000
In92       In  0.91506905  0.20099007  0.68335718     1.36900
C93         C  0.91934436  0.22590873  0.71499726     0.77700
O94         O  0.94287762  0.18427981  0.69364355    -0.60800
O95         O  0.94466592  0.20105909  0.66631215    -0.51700
C96         C  0.89401392  0.16645845  0.68366688     0.70300
O97         O  0.89695511  0.17723422  0.69926311    -0.46500
C98         C  0.89211707  0.22414021  0.65900541     0.75000
O99         O  0.90902102  0.20980011  0.71577911    -0.58400
O100        O  0.90861142  0.21628484  0.65318887    -0.48500
O101        O  0.92745719  0.22911844  0.69794637    -0.54800
C102        C  0.95393955  0.19044638  0.67933400     0.85200
O103        O  0.90246674  0.17314795  0.66783305    -0.56700
O104        O  0.88755919  0.21993463  0.67710828    -0.60000
In105      In  0.58206317  0.18513216  0.70788049     1.36900
C106        C  0.57887128  0.21574563  0.73450158     0.77700
O107        O  0.55300111  0.19534321  0.69312195    -0.60800
O108        O  0.55341154  0.16665072  0.70748780    -0.51700
C109        C  0.60391653  0.18433442  0.67348661     0.70300
O110        O  0.59832102  0.20056767  0.68201864    -0.46500
C111        C  0.60438039  0.16120353  0.73165883     0.75000
O112        O  0.58944676  0.21694200  0.71852908    -0.58400
O113        O  0.58774827  0.15547472  0.72397006    -0.48500
O114        O  0.56976473  0.19905063  0.73642187    -0.54800
C115        C  0.54293415  0.18002802  0.69866245     0.85200
O116        O  0.59711389  0.16854488  0.68187944    -0.56700
O117        O  0.60948334  0.17897109  0.72678894    -0.60000
In118      In  0.67976504  0.08390005  0.80129104     1.36900
C119        C  0.70993236  0.08045844  0.77462009     0.77700
O120        O  0.68819330  0.05445704  0.81654960    -0.60800
O121        O  0.66256362  0.05457524  0.79727250    -0.51700
C122        C  0.68031408  0.10486688  0.83611683     0.70300
O123        O  0.69579750  0.10268824  0.82506320    -0.46500
C124        C  0.65452734  0.10825244  0.78124059     0.75000
O125        O  0.71284918  0.08571187  0.79288913    -0.58400
O126        O  0.64916392  0.09126895  0.78830786    -0.48500
O127        O  0.69162678  0.07723835  0.77017631    -0.54800
C128        C  0.67440158  0.04414657  0.80813988     0.85200
O129        O  0.66496348  0.09519638  0.82994288    -0.56700
O130        O  0.67277523  0.11284204  0.78483711    -0.60000
In131      In  0.70115651  0.17927229  0.58984677     1.36900
C132        C  0.72648117  0.21048650  0.58538929     0.77700
O133        O  0.72345448  0.17307677  0.61488056    -0.60800
O134        O  0.71308627  0.14808802  0.59747942    -0.51700
C135        C  0.66755214  0.18012568  0.61261693     0.70300
O136        O  0.67857269  0.19547140  0.60963455    -0.46500
C137        C  0.69114240  0.17384428  0.55073353     0.75000
O138        O  0.70998235  0.21198409  0.59503351    -0.58400
O139        O  0.70283225  0.16210146  0.56032984    -0.48500
O140        O  0.72953358  0.19316491  0.57777722    -0.54800
C141        C  0.72437430  0.15422019  0.61174561     0.85200
O142        O  0.67340534  0.16443509  0.60329531    -0.56700
O143        O  0.68378124  0.18786234  0.56153800    -0.60000
In144      In  0.80053304  0.08012153  0.68384214     1.36900
C145        C  0.77374498  0.07804454  0.71408401     0.77700
O146        O  0.78730105  0.11009239  0.67530212    -0.60800
O147        O  0.78008349  0.08467581  0.65677051    -0.51700
C148        C  0.83447167  0.10196065  0.68513142     0.70300
O149        O  0.82472713  0.09679973  0.70076500    -0.46500
C150        C  0.81172017  0.04171247  0.67718548     0.75000
O151        O  0.79142868  0.08498001  0.71641408    -0.58400
O152        O  0.80562158  0.05327053  0.66318238    -0.48500
O153        O  0.77014354  0.07149233  0.69639976    -0.54800
C154        C  0.77780135  0.10346103  0.66001648     0.85200
O155        O  0.82753519  0.09464157  0.66876300    -0.56700
O156        O  0.81306038  0.05023628  0.69432076    -0.60000
In157      In  0.19869006  0.08200210  0.68419412     1.36900
C158        C  0.22362112  0.07964395  0.71607962     0.77700
O159        O  0.18273102  0.05251530  0.69135205    -0.60800
O160        O  0.20282234  0.05335796  0.66639721    -0.51700
C161        C  0.16424068  0.10319088  0.68389151     0.70300
O162        O  0.17275739  0.09745448  0.70008267    -0.46500
C163        C  0.22180283  0.10508860  0.66051237     0.75000
O164        O  0.20694649  0.08905514  0.71675700    -0.58400
O165        O  0.21185137  0.09020231  0.65360457    -0.48500
O166        O  0.22705689  0.07107886  0.69925389    -0.54800
C167        C  0.19154812  0.04265642  0.67746110     0.85200
O168        O  0.17283250  0.09708000  0.66788889    -0.56700
O169        O  0.21923296  0.10832448  0.67922422    -0.60000
In170      In  0.29871477  0.17934338  0.58980344     1.36900
C171        C  0.27175864  0.20984169  0.58782816     0.77700
O172        O  0.31146604  0.19085118  0.56047481    -0.60800
O173        O  0.30406698  0.15968017  0.56215967    -0.51700
C174        C  0.33327736  0.18087062  0.61138939     0.70300
O175        O  0.32267634  0.19622442  0.60709311    -0.46500
C176        C  0.27511752  0.15428899  0.61088513     0.75000
O177        O  0.28819209  0.21101416  0.59761533    -0.58400
O178        O  0.27881465  0.15162369  0.59225121    -0.48500
O179        O  0.26944799  0.19320145  0.57858544    -0.54800
C180        C  0.31014584  0.17413650  0.55118674     0.85200
O181        O  0.32661855  0.16455520  0.60377882    -0.56700
O182        O  0.28402120  0.16936188  0.61865431    -0.60000
In183      In  0.08016622  0.19939232  0.68583777     1.36900
C184        C  0.07670579  0.22336331  0.71821269     0.77700
O185        O  0.10644901  0.22022199  0.68097950    -0.60800
O186        O  0.08577756  0.21603772  0.65658006    -0.51700
C187        C  0.10235466  0.16552704  0.68371302     0.70300
O188        O  0.09546271  0.17236490  0.70025214    -0.46500
C189        C  0.04146440  0.18946014  0.67944890     0.75000
O190        O  0.08851292  0.20825852  0.71782100    -0.58400
O191        O  0.05162218  0.19992027  0.66708530    -0.48500
O192        O  0.06658369  0.22588578  0.70212182    -0.54800
C193        C  0.10163039  0.22474521  0.66298003     0.85200
O194        O  0.09684127  0.17544249  0.66830146    -0.56700
O195        O  0.05158703  0.18305416  0.69443433    -0.60000
In196      In  0.17732642  0.29771685  0.58988775     1.36900
C197        C  0.20795257  0.27101512  0.58755906     0.77700
O198        O  0.16833788  0.28229615  0.61867579    -0.60800
O199        O  0.14784327  0.28096885  0.59381496    -0.51700
C200        C  0.17699547  0.33264540  0.61064179     0.70300
O201        O  0.19273474  0.32224748  0.60745661    -0.46500
C202        C  0.17366060  0.30817422  0.55089471     0.75000
O203        O  0.20927540  0.28752979  0.59724787    -0.58400
O204        O  0.16018490  0.29849655  0.56040505    -0.48500
O205        O  0.19098367  0.26832995  0.57912960    -0.54800
C206        C  0.15156670  0.27593699  0.61196244     0.85200
O207        O  0.16121735  0.32545976  0.60242229    -0.56700
O208        O  0.18849454  0.31350989  0.56179097    -0.60000
In209      In  0.29530871  0.41486604  0.82642255     1.36900
C210        C  0.27025271  0.41872655  0.79468243     0.77700
O211        O  0.27683095  0.38693120  0.83178662    -0.60800
O212        O  0.27966091  0.40811010  0.85593868    -0.51700
C213        C  0.33008072  0.39422946  0.82839828     0.70300
O214        O  0.32204100  0.39931552  0.81171768    -0.46500
C215        C  0.30332053  0.45404924  0.83310295     0.75000
O216        O  0.28683725  0.40916907  0.79342046    -0.58400
O217        O  0.29196440  0.44364805  0.84439068    -0.48500
O218        O  0.26688466  0.42609854  0.81202706    -0.54800
C219        C  0.27206051  0.39159697  0.84978063     0.85200
O220        O  0.32079160  0.40058570  0.84389587    -0.56700
O221        O  0.31174721  0.44393272  0.81915303    -0.60000
In222      In  0.19606930  0.31865384  0.92308720     1.36900
C223        C  0.22305779  0.28864553  0.92415545     0.77700
O224        O  0.21219158  0.32641738  0.89434635    -0.60800
O225        O  0.21314438  0.34784856  0.91838640    -0.51700
C226        C  0.16051132  0.31817557  0.90383429     0.70300
O227        O  0.16961275  0.30225504  0.90929324    -0.46500
C228        C  0.18850156  0.32347952  0.96238448     0.75000
O229        O  0.20715577  0.28787169  0.91344055    -0.58400
O230        O  0.19404625  0.33784127  0.95103078    -0.48500
O231        O  0.22480000  0.30467741  0.93454037    -0.54800
C232        C  0.21868520  0.34333754  0.90057025     0.85200
O233        O  0.16910026  0.33435523  0.90942625    -0.56700
O234        O  0.18500960  0.30703238  0.95314418    -0.60000
In235      In  0.17661624  0.41695480  0.70659988     1.36900
C236        C  0.20871796  0.41999454  0.73141045     0.77700
O237        O  0.18574410  0.44540362  0.68989329    -0.60800
O238        O  0.15921822  0.44629104  0.70784480    -0.51700
C239        C  0.17553363  0.39602446  0.67172973     0.70300
O240        O  0.19156100  0.39955998  0.68162527    -0.46500
C241        C  0.15303156  0.39331609  0.72982466     0.75000
O242        O  0.20923078  0.41038012  0.71480314    -0.58400
O243        O  0.14735104  0.41051550  0.72349011    -0.48500
O244        O  0.19191064  0.42846391  0.73490613    -0.54800
C245        C  0.17140822  0.45605680  0.69680605     0.85200
O246        O  0.15989928  0.40414167  0.67926009    -0.56700
O247        O  0.17061845  0.38848687  0.72416100    -0.60000
In248      In  0.08061865  0.31750400  0.80489651     1.36900
C249        C  0.07805135  0.28523072  0.78057344     0.77700
O250        O  0.05269664  0.30834314  0.82193711    -0.60800
O251        O  0.05152577  0.33509489  0.80417438    -0.51700
C252        C  0.10048312  0.31895208  0.84018723     0.70300
O253        O  0.09478376  0.30258202  0.83200546    -0.46500
C254        C  0.10243489  0.34198597  0.78106168     0.75000
O255        O  0.09030554  0.28625547  0.79530318    -0.58400
O256        O  0.08533227  0.34689485  0.78814377    -0.48500
O257        O  0.06690814  0.30066980  0.77857187    -0.54800
C258        C  0.04203239  0.32282306  0.81536519     0.85200
O259        O  0.09544659  0.33464415  0.83046258    -0.56700
O260        O  0.10825195  0.32448583  0.78626990    -0.60000
In261      In  0.41965272  0.30429871  0.82871693     1.36900
C262        C  0.42286301  0.27989262  0.79656177     0.77700
O263        O  0.44823341  0.32208043  0.82319948    -0.60800
O264        O  0.44781156  0.30139002  0.84772637    -0.51700
C265        C  0.39730170  0.33787274  0.82948352     0.70300
O266        O  0.40493068  0.33091484  0.81333234    -0.46500
C267        C  0.39671238  0.27938987  0.85060017     0.75000
O268        O  0.41247713  0.29598366  0.79619828    -0.58400
O269        O  0.41190249  0.28848487  0.85801897    -0.48500
O270        O  0.43250639  0.27720358  0.81292835    -0.54800
C271        C  0.45806708  0.31378267  0.83743397     0.85200
O272        O  0.40238393  0.32838636  0.84535197    -0.56700
O273        O  0.39308506  0.28365813  0.83228407    -0.60000
In274      In  0.31960996  0.20395906  0.91962698     1.36900
C275        C  0.28842674  0.22969230  0.92310828     0.77700
O276        O  0.31046913  0.18654828  0.94741608    -0.60800
O277        O  0.33814516  0.20264081  0.94839990    -0.51700
C278        C  0.31871619  0.16954325  0.89827856     0.70300
O279        O  0.30295736  0.17877444  0.90392818    -0.46500
C280        C  0.34524290  0.22646392  0.89811275     0.75000
O281        O  0.28807924  0.21429233  0.91170140    -0.58400
O282        O  0.34910460  0.22039270  0.91588913    -0.48500
O283        O  0.30484471  0.23190808  0.93270432    -0.54800
C284        C  0.32561478  0.19177614  0.95790204     0.85200
O285        O  0.33501309  0.17768876  0.90421904    -0.56700
O286        O  0.32829159  0.22075135  0.89125234    -0.60000
In287      In  0.41564683  0.18537738  0.70934843     1.36900
C288        C  0.41863576  0.21571704  0.73613680     0.77700
O289        O  0.38732786  0.17675212  0.72559846    -0.60800
O290        O  0.41050056  0.15456246  0.72340058    -0.51700
C291        C  0.39446993  0.18584773  0.67463576     0.70300
O292        O  0.39411798  0.20001371  0.68755238    -0.46500
C293        C  0.45510869  0.18195286  0.70100278     0.75000
O294        O  0.41409827  0.21865558  0.71770116    -0.58400
O295        O  0.44535980  0.16859149  0.71063411    -0.48500
O296        O  0.42132510  0.19733003  0.74063342    -0.54800
C297        C  0.39309541  0.15903823  0.73006820     0.85200
O298        O  0.40639956  0.17154505  0.67917896    -0.56700
O299        O  0.44433314  0.19655250  0.69493344    -0.60000
In300      In  0.31785153  0.08450871  0.80341373     1.36900
C301        C  0.28708751  0.08131948  0.77727356     0.77700
O302        O  0.32472678  0.11322534  0.78681911    -0.60800
O303        O  0.34721167  0.09033079  0.78655045    -0.51700
C304        C  0.31852082  0.10541102  0.83810242     0.70300
O305        O  0.30231896  0.10132830  0.82869922    -0.46500
C306        C  0.32228605  0.04546628  0.81361051     0.75000
O307        O  0.28586909  0.09159113  0.79347151    -0.58400
O308        O  0.33575476  0.05540505  0.80431964    -0.48500
O309        O  0.30405493  0.07289322  0.77466688    -0.54800
C310        C  0.34205476  0.10789620  0.78078724     0.85200
O311        O  0.33415358  0.09751740  0.83039021    -0.56700
O312        O  0.30705084  0.05592899  0.81856843    -0.60000
In313      In  0.69866384  0.82025369  0.58518244     1.36900
C314        C  0.72421755  0.78887720  0.58311632     0.77700
O315        O  0.68458729  0.80982648  0.55592367    -0.60800
O316        O  0.69881493  0.83865082  0.55635694    -0.51700
C317        C  0.66328346  0.81959814  0.60529872     0.70300
O318        O  0.67253460  0.80383005  0.59964407    -0.46500
C319        C  0.72344638  0.84430251  0.60635700     0.75000
O320        O  0.72525612  0.80399908  0.57141637    -0.58400
O321        O  0.71899533  0.82649824  0.61165281    -0.48500
O322        O  0.70973000  0.78971702  0.59560567    -0.54800
C323        C  0.69008900  0.82516039  0.54586983     0.85200
O324        O  0.67185539  0.83585499  0.59998886    -0.56700
O325        O  0.71439128  0.85027247  0.59050963    -0.60000
In326      In  0.79837298  0.91662725  0.68148080     1.36900
C327        C  0.77080214  0.92021516  0.71115939     0.77700
O328        O  0.81309915  0.94502054  0.69292601    -0.60800
O329        O  0.80332821  0.94449883  0.66228122    -0.51700
C330        C  0.83269491  0.89498944  0.68214926     0.70300
O331        O  0.82325802  0.89999541  0.69808156    -0.46500
C332        C  0.77594549  0.89493155  0.65572580     0.75000
O333        O  0.78719820  0.91052698  0.71334201    -0.58400
O334        O  0.78063668  0.91321059  0.65238681    -0.48500
O335        O  0.76881378  0.92822118  0.69387206    -0.54800
C336        C  0.81112555  0.95471300  0.67654567     0.85200
O337        O  0.82478617  0.90164252  0.66601211    -0.56700
O338        O  0.78282562  0.88792083  0.67222346    -0.60000
In339      In  0.81945065  0.70341811  0.58865981     1.36900
C340        C  0.78762687  0.72783377  0.58344323     0.77700
O341        O  0.82445482  0.72525581  0.61458937    -0.60800
O342        O  0.84904634  0.71951646  0.59482369    -0.51700
C343        C  0.81960586  0.66953285  0.61123368     0.70300
O344        O  0.80358534  0.67820784  0.60541422    -0.46500
C345        C  0.82600913  0.69194648  0.55012875     0.75000
O346        O  0.80414812  0.73008587  0.57408605    -0.58400
O347        O  0.83848628  0.70242725  0.56024329    -0.48500
O348        O  0.78730830  0.71269451  0.59520443    -0.54800
C349        C  0.84263468  0.72913366  0.61016131     0.85200
O350        O  0.83557695  0.67793192  0.60493233    -0.56700
O351        O  0.81074476  0.68642639  0.56020660    -0.60000
In352      In  0.91831953  0.80113779  0.68609879     1.36900
C353        C  0.92101407  0.77479587  0.71686560     0.77700
O354        O  0.88907868  0.78580473  0.67740759    -0.60800
O355        O  0.91311858  0.78492969  0.65616723    -0.51700
C356        C  0.89733050  0.83568107  0.68586630     0.70300
O357        O  0.89994911  0.82515531  0.70165856    -0.46500
C358        C  0.95749596  0.81107206  0.68229040     0.75000
O359        O  0.91251560  0.79187133  0.71859526    -0.58400
O360        O  0.94780098  0.80121518  0.66896569    -0.48500
O361        O  0.92818968  0.77142566  0.69941500    -0.54800
C362        C  0.89508823  0.77989219  0.66018288     0.85200
O363        O  0.90659505  0.82911422  0.67039615    -0.56700
O364        O  0.94672401  0.81687283  0.69702224    -0.60000
In365      In  0.57926669  0.81730356  0.70086475     1.36900
C366        C  0.57550304  0.78640344  0.72692973     0.77700
O367        O  0.60763083  0.82322409  0.71881967    -0.60800
O368        O  0.58733068  0.84769033  0.71452249    -0.51700
C369        C  0.59967619  0.81623078  0.66569373     0.70300
O370        O  0.59735754  0.80098408  0.67700273    -0.46500
C371        C  0.53984656  0.82391941  0.69383090     0.75000
O372        O  0.58313841  0.78430096  0.70944282    -0.58400
O373        O  0.55082415  0.83580471  0.70408369    -0.48500
O374        O  0.56954787  0.80419407  0.73070361    -0.54800
C375        C  0.60368507  0.84159278  0.72245280     0.85200
O376        O  0.59045296  0.83187196  0.67185841    -0.56700
O377        O  0.54945816  0.80925472  0.68604220    -0.60000
In378      In  0.67664857  0.91586172  0.79869244     1.36900
C379        C  0.70780274  0.91894204  0.77295674     0.77700
O380        O  0.67057091  0.88835188  0.77957195    -0.60800
O381        O  0.64629237  0.90883032  0.78440704    -0.51700
C382        C  0.67703763  0.89417690  0.83335857     0.70300
O383        O  0.69214390  0.89635215  0.82187812    -0.46500
C384        C  0.67218677  0.95576245  0.80610476     0.75000
O385        O  0.70981397  0.91265415  0.79098807    -0.58400
O386        O  0.65935229  0.94534401  0.79641135    -0.48500
O387        O  0.68986299  0.92379237  0.76835294    -0.54800
C388        C  0.65233199  0.89275454  0.77580910     0.85200
O389        O  0.66157304  0.90388485  0.82748948    -0.56700
O390        O  0.68663493  0.94538471  0.81321080    -0.60000
In391      In  0.58539295  0.69845712  0.81990395     1.36900
C392        C  0.57960563  0.72412616  0.78901377     0.77700
O393        O  0.55531406  0.68426736  0.81124063    -0.60800
O394        O  0.55828203  0.69700146  0.84058920    -0.51700
C395        C  0.60837024  0.66501985  0.81652500     0.70300
O396        O  0.60758346  0.67875486  0.80328387    -0.46500
C397        C  0.60852923  0.72058916  0.84523971     0.75000
O398        O  0.58433765  0.70575296  0.78644468    -0.58400
O399        O  0.59119769  0.71407986  0.85007492    -0.48500
O400        O  0.57736836  0.72915715  0.80739549    -0.54800
C401        C  0.54668421  0.68867613  0.82779482     0.85200
O402        O  0.59660351  0.66798795  0.83136905    -0.56700
O403        O  0.61397987  0.71543503  0.82760920    -0.60000
In404      In  0.67881916  0.79951713  0.91994361     1.36900
C405        C  0.71078924  0.77487108  0.92422372     0.77700
O406        O  0.68794046  0.81613350  0.94871816    -0.60800
O407        O  0.66165694  0.79787041  0.94950122    -0.51700
C408        C  0.67722728  0.83357963  0.89767288     0.70300
O409        O  0.69346024  0.82424664  0.90171254    -0.46500
C410        C  0.65554108  0.77499533  0.89715371     0.75000
O411        O  0.71167147  0.79121308  0.91421465    -0.58400
O412        O  0.64921402  0.78351655  0.91316719    -0.48500
O413        O  0.69366328  0.77150648  0.93197841    -0.54800
C414        C  0.67397277  0.80870020  0.95946567     0.85200
O415        O  0.66179523  0.82606901  0.90612177    -0.56700
O416        O  0.67361927  0.77941050  0.89278419    -0.60000
In417      In  0.70502594  0.58162769  0.82022586     1.36900
C418        C  0.72970820  0.57684943  0.78855669     0.77700
O419        O  0.72376973  0.60960889  0.82656946    -0.60800
O420        O  0.71842881  0.58946144  0.85090300    -0.51700
C421        C  0.67059519  0.60287518  0.81777204     0.70300
O422        O  0.68280664  0.60087615  0.80320394    -0.46500
C423        C  0.69622682  0.54256004  0.82715634     0.75000
O424        O  0.71246368  0.58497069  0.78707463    -0.58400
O425        O  0.70713057  0.55307322  0.83890280    -0.48500
O426        O  0.73405866  0.57076799  0.80622722    -0.54800
C427        C  0.72679829  0.60564091  0.84507429     0.85200
O428        O  0.67562710  0.59315877  0.83352709    -0.56700
O429        O  0.68903419  0.55239740  0.81235033    -0.60000
In430      In  0.79888629  0.68177900  0.92087176     1.36900
C431        C  0.77443870  0.71396973  0.92467521     0.77700
O432        O  0.77855274  0.67713727  0.89368419    -0.60800
O433        O  0.78508125  0.65168201  0.91208265    -0.51700
C434        C  0.83363055  0.68152322  0.89955544     0.70300
O435        O  0.82454477  0.69761449  0.90461235    -0.46500
C436        C  0.80713456  0.67440473  0.96026607     0.75000
O437        O  0.79104652  0.71469232  0.91517842    -0.58400
O438        O  0.79502558  0.66377832  0.94989014    -0.48500
O439        O  0.77083627  0.69695307  0.93265767    -0.54800
C440        C  0.77587860  0.65843002  0.89663436     0.85200
O441        O  0.82539364  0.66562569  0.90631568    -0.56700
O442        O  0.81577061  0.68814231  0.95011394    -0.60000
In443      In  0.82450743  0.58048320  0.70305050     1.36900
C444        C  0.79288520  0.57613394  0.72783928     0.77700
O445        O  0.81605503  0.55162165  0.68635849    -0.60800
O446        O  0.84287418  0.55163883  0.70393445    -0.51700
C447        C  0.82342060  0.60362145  0.66970974     0.70300
O448        O  0.80784109  0.59847466  0.67947611    -0.46500
C449        C  0.84853318  0.60331826  0.72667194     0.75000
O450        O  0.79180453  0.58575000  0.71129496    -0.58400
O451        O  0.85475506  0.58756120  0.71766932    -0.48500
O452        O  0.81015614  0.56874190  0.73150527    -0.54800
C453        C  0.83075127  0.54141143  0.69317035     0.85200
O454        O  0.83957621  0.59566777  0.67625041    -0.56700
O455        O  0.83010632  0.60726658  0.72340474    -0.60000
In456      In  0.91864237  0.67975150  0.80346593     1.36900
C457        C  0.92200094  0.71086434  0.77761653     0.77700
O458        O  0.94741940  0.68983773  0.81909759    -0.60800
O459        O  0.94735741  0.66125811  0.80445628    -0.51700
C460        C  0.89654824  0.67914361  0.83774544     0.70300
O461        O  0.90194324  0.69531264  0.82904542    -0.46500
C462        C  0.89663748  0.65530240  0.77965489     0.75000
O463        O  0.91160187  0.71184881  0.79370026    -0.58400
O464        O  0.91378082  0.65022385  0.78659179    -0.48500
O465        O  0.93077325  0.69404872  0.77510520    -0.54800
C466        C  0.95756081  0.67442613  0.81395557     0.85200
O467        O  0.90349376  0.66331285  0.82947568    -0.56700
O468        O  0.89099538  0.67284831  0.78487621    -0.60000
In469      In  0.41998246  0.69547019  0.82957819     1.36900
C470        C  0.42365144  0.72280503  0.80004773     0.77700
O471        O  0.39135112  0.71240166  0.83612465    -0.60800
O472        O  0.41381046  0.71176924  0.85920125    -0.51700
C473        C  0.39790867  0.66151467  0.82787313     0.70300
O474        O  0.40102663  0.67279731  0.81273592    -0.46500
C475        C  0.45911817  0.68536905  0.83325083     0.75000
O476        O  0.41624766  0.70534730  0.79717902    -0.58400
O477        O  0.44915009  0.69321589  0.84766504    -0.48500
O478        O  0.42960328  0.72596358  0.81802096    -0.54800
C479        C  0.39665554  0.71831518  0.85359267     0.85200
O480        O  0.40714238  0.66706650  0.84379775    -0.56700
O481        O  0.44858632  0.68146158  0.81771815    -0.60000
In482      In  0.32108783  0.79728512  0.92132298     1.36900
C483        C  0.29085005  0.77072645  0.92368262     0.77700
O484        O  0.32807366  0.77967602  0.89319951    -0.60800
O485        O  0.35073241  0.78124781  0.91606015    -0.51700
C486        C  0.32095980  0.83199332  0.90059207     0.70300
O487        O  0.30530160  0.82148187  0.90366476    -0.46500
C488        C  0.32395139  0.80605891  0.96069753     0.75000
O489        O  0.28883956  0.78786938  0.91536057    -0.58400
O490        O  0.33846220  0.79830706  0.95089442    -0.48500
O491        O  0.30831461  0.76746299  0.93084406    -0.54800
C492        C  0.34544955  0.77412429  0.89897821     0.85200
O493        O  0.33673772  0.82509105  0.90899639    -0.56700
O494        O  0.30884654  0.81074233  0.94993092    -0.60000
In495      In  0.41413588  0.81547022  0.71136240     1.36900
C496        C  0.41899656  0.78501575  0.73780675     0.77700
O497        O  0.44244547  0.80611087  0.69493257    -0.60800
O498        O  0.44228778  0.83495849  0.70897444    -0.51700
C499        C  0.39217757  0.81473017  0.67713037     0.70300
O500        O  0.39688447  0.79889856  0.68685261    -0.46500
C501        C  0.39109009  0.83987991  0.73389930     0.75000
O502        O  0.40974537  0.78302004  0.72111196    -0.58400
O503        O  0.40921783  0.84403782  0.72936849    -0.48500
O504        O  0.42578306  0.80265072  0.74083664    -0.54800
C505        C  0.45237090  0.82189647  0.69922095     0.85200
O506        O  0.39945650  0.83082664  0.68460144    -0.56700
O507        O  0.38480787  0.82319284  0.72685917    -0.60000
In508      In  0.31955350  0.91823992  0.80654826     1.36900
C509        C  0.28840837  0.92132545  0.78091270     0.77700
O510        O  0.31133975  0.94693515  0.82338240    -0.60800
O511        O  0.33670674  0.94769019  0.80381339    -0.51700
C512        C  0.31910733  0.89614461  0.84046276     0.70300
O513        O  0.30328352  0.90177969  0.83127109    -0.46500
C514        C  0.34299160  0.89376032  0.78439087     0.75000
O515        O  0.28712991  0.91240826  0.79784897    -0.58400
O516        O  0.32414215  0.89128067  0.78627820    -0.48500
O517        O  0.30554278  0.92914463  0.77749916    -0.54800
C518        C  0.32501936  0.95758772  0.81532637     0.85200
O519        O  0.33528320  0.90320407  0.83308060    -0.56700
O520        O  0.34989954  0.90901882  0.79383113    -0.60000
In521      In  0.30010326  0.81800630  0.58799499     1.36900
C522        C  0.27288262  0.78865287  0.58292639     0.77700
O523        O  0.28487421  0.82652359  0.61718931    -0.60800
O524        O  0.28387395  0.84790829  0.59323250    -0.51700
C525        C  0.33283410  0.81402637  0.61171535     0.70300
O526        O  0.31911614  0.80079919  0.61047651    -0.46500
C527        C  0.31021072  0.82396168  0.54893334     0.75000
O528        O  0.29123160  0.78506665  0.58706144    -0.58400
O529        O  0.30374562  0.83803990  0.56025540    -0.48500
O530        O  0.26875984  0.80723289  0.58097676    -0.54800
C531        C  0.27885179  0.84367688  0.61128025     0.85200
O532        O  0.33041094  0.82882651  0.59974279    -0.56700
O533        O  0.31289033  0.80737950  0.55812874    -0.60000
In534      In  0.20226550  0.91616390  0.68540561     1.36900
C535        C  0.22755554  0.92033860  0.71698014     0.77700
O536        O  0.22279888  0.88959288  0.67938856    -0.60800
O537        O  0.21697861  0.90987417  0.65514323    -0.51700
C538        C  0.16759513  0.89500177  0.68581951     0.70300
O539        O  0.17625562  0.90141159  0.70170647    -0.46500
C540        C  0.19245056  0.95493062  0.67868809     0.75000
O541        O  0.21250592  0.90848749  0.71731336    -0.58400
O542        O  0.20356185  0.94469596  0.66691760    -0.48500
O543        O  0.22926592  0.93009738  0.70061704    -0.54800
C544        C  0.22618516  0.89414912  0.66107046     0.85200
O545        O  0.17638943  0.90009489  0.66960424    -0.56700
O546        O  0.18538768  0.94490231  0.69337384    -0.60000
In547      In  0.29838331  0.58145583  0.82591943     1.36900
C548        C  0.27150233  0.57886846  0.79568918     0.77700
O549        O  0.31332241  0.55184280  0.81716812    -0.60800
O550        O  0.29513637  0.55251363  0.84354146    -0.51700
C551        C  0.33318314  0.60219876  0.82436700     0.70300
O552        O  0.32166769  0.59998875  0.80919322    -0.46500
C553        C  0.27787753  0.60478103  0.85200064     0.75000
O554        O  0.28972544  0.58390998  0.79276590    -0.58400
O555        O  0.28608959  0.58824804  0.85715070    -0.48500
O556        O  0.26734709  0.57493978  0.81395992    -0.54800
C557        C  0.30562595  0.54189757  0.83157455     0.85200
O558        O  0.32715867  0.59309316  0.84010272    -0.56700
O559        O  0.28085218  0.60956191  0.83365363    -0.60000
In560      In  0.20193171  0.67839292  0.92592941     1.36900
C561        C  0.22907178  0.70816183  0.92756154     0.77700
O562        O  0.19015110  0.69105559  0.95522637    -0.60800
O563        O  0.19747128  0.65980899  0.95444620    -0.51700
C564        C  0.16685068  0.67975357  0.90570435     0.70300
O565        O  0.17786694  0.69508916  0.90877466    -0.46500
C566        C  0.22504786  0.65432398  0.90276521     0.75000
O567        O  0.21177007  0.71041872  0.91960306    -0.58400
O568        O  0.22125756  0.65029255  0.92117254    -0.48500
O569        O  0.23199320  0.69086181  0.93519025    -0.54800
C570        C  0.19146586  0.67468766  0.96500845     0.85200
O571        O  0.17353104  0.66364855  0.91371894    -0.56700
O572        O  0.21618746  0.66999501  0.89631814    -0.60000
In573      In  0.17894047  0.70199512  0.58932362     1.36900
C574        C  0.15509349  0.72376744  0.61384806     0.77700
O575        O  0.16374449  0.67435687  0.60217620    -0.60800
O576        O  0.19535015  0.67749980  0.60656392    -0.51700
C577        C  0.17201947  0.69386794  0.54999062     0.70300
O578        O  0.16065356  0.70512773  0.56049042    -0.46500
C579        C  0.21012836  0.72729367  0.58523169     0.75000
O580        O  0.14873975  0.71539691  0.59776200    -0.58400
O581        O  0.21193019  0.70991848  0.59309229    -0.48500
O582        O  0.17365241  0.72069516  0.61739842    -0.54800
C583        C  0.17961242  0.66726928  0.61021853     0.85200
O584        O  0.18636063  0.68601478  0.55998783    -0.56700
O585        O  0.19237005  0.73145303  0.57940297    -0.60000
In586      In  0.08371189  0.79910639  0.69043789     1.36900
C587        C  0.07899688  0.77423053  0.72205410     0.77700
O588        O  0.05474435  0.81489097  0.69932813    -0.60800
O589        O  0.05569614  0.79954157  0.67107464    -0.51700
C590        C  0.10508888  0.83354126  0.68996578     0.70300
O591        O  0.10244688  0.82303358  0.70573425    -0.46500
C592        C  0.10669164  0.77539965  0.66679666     0.75000
O593        O  0.08789467  0.79113234  0.72354343    -0.58400
O594        O  0.08925737  0.78142652  0.66162990    -0.48500
O595        O  0.07228098  0.77041098  0.70449858    -0.54800
C596        C  0.04510950  0.80933769  0.68366222     0.85200
O597        O  0.09602495  0.82675900  0.67444392    -0.56700
O598        O  0.11232093  0.78173422  0.68400864    -0.60000
In599      In  0.17929449  0.58280598  0.70612364     1.36900
C600        C  0.20852412  0.57937274  0.73397216     0.77700
O601        O  0.17159500  0.61176632  0.72212534    -0.60800
O602        O  0.14958122  0.58835197  0.72206934    -0.51700
C603        C  0.18084727  0.60483875  0.67211711     0.70300
O604        O  0.19585518  0.60231443  0.68375175    -0.46500
C605        C  0.17413835  0.54379068  0.69589890     0.75000
O606        O  0.21206547  0.58458540  0.71585181    -0.58400
O607        O  0.16064363  0.55424343  0.70458168    -0.48500
O608        O  0.19019188  0.57535021  0.73743980    -0.54800
C609        C  0.15436513  0.60595613  0.72806905     0.85200
O610        O  0.16514957  0.59531722  0.67753298    -0.56700
O611        O  0.18986059  0.55371363  0.69150641    -0.60000
In612      In  0.08466451  0.67954952  0.80807645     1.36900
C613        C  0.08109314  0.71196291  0.78401245     0.77700
O614        O  0.11182596  0.67424884  0.78820964    -0.60800
O615        O  0.09149301  0.64985029  0.79219503    -0.51700
C616        C  0.10485074  0.67924206  0.84351657     0.70300
O617        O  0.10059041  0.69527677  0.83398427    -0.46500
C618        C  0.04537765  0.67301187  0.81582006     0.75000
O619        O  0.09236675  0.71180517  0.79954871    -0.58400
O620        O  0.05607011  0.66122732  0.80517695    -0.48500
O621        O  0.07154602  0.69561964  0.78115102    -0.54800
C622        C  0.10737844  0.65620916  0.78364585     0.85200
O623        O  0.09794618  0.66336840  0.83527058    -0.56700
O624        O  0.05522961  0.68751645  0.82361938    -0.60000
In625      In  0.81257130  0.29577107  0.42024495     1.36900
C626        C  0.78222793  0.26957846  0.42500928     0.77700
O627        O  0.81935911  0.27851490  0.39158675    -0.60800
O628        O  0.84230995  0.28056359  0.41406085    -0.51700
C629        C  0.81163495  0.32944767  0.39797028     0.70300
O630        O  0.79589067  0.31951716  0.40230653    -0.46500
C631        C  0.82031464  0.30651703  0.45865746     0.75000
O632        O  0.78002698  0.28640005  0.41613971    -0.58400
O633        O  0.83191231  0.29543695  0.44826057    -0.48500
O634        O  0.79985040  0.26643867  0.43174012    -0.54800
C635        C  0.83717149  0.27386684  0.39680808     0.85200
O636        O  0.82759709  0.32273048  0.40616944    -0.56700
O637        O  0.80504383  0.31291980  0.44897611    -0.60000
In638      In  0.91563473  0.20066254  0.32590168     1.36900
C639        C  0.92173085  0.22618209  0.29514743     0.77700
O640        O  0.88867408  0.22092040  0.33017645    -0.60800
O641        O  0.90665731  0.21414353  0.35599625    -0.51700
C642        C  0.89370605  0.16658998  0.32394006     0.70300
O643        O  0.89879868  0.17661203  0.30845688    -0.46500
C644        C  0.95411184  0.19101452  0.33405139     0.75000
O645        O  0.91207864  0.20974763  0.29318130    -0.58400
O646        O  0.94366125  0.20253732  0.34522480    -0.48500
O647        O  0.92853371  0.22922788  0.31284150    -0.54800
C648        C  0.89150551  0.22354179  0.34897460     0.85200
O649        O  0.90065827  0.17363064  0.34041132    -0.56700
O650        O  0.94440652  0.18345907  0.31931696    -0.60000
In651      In  0.69698045  0.17420065  0.42315171     1.36900
C652        C  0.72178753  0.20602286  0.42488080     0.77700
O653        O  0.68213859  0.18441499  0.45227566    -0.60800
O654        O  0.69877375  0.15699355  0.45257691    -0.51700
C655        C  0.66158161  0.17283339  0.40340112     0.70300
O656        O  0.67063590  0.18917798  0.40759356    -0.46500
C657        C  0.71997646  0.15024209  0.39972819     0.75000
O658        O  0.70529077  0.20623998  0.41512133    -0.58400
O659        O  0.71360265  0.14480884  0.41698605    -0.48500
O660        O  0.72535595  0.18954761  0.43395638    -0.54800
C661        C  0.68891426  0.16988880  0.46276078     0.85200
O662        O  0.67018150  0.15718336  0.41033569    -0.56700
O663        O  0.71422971  0.16774763  0.39451908    -0.60000
In664      In  0.79759937  0.08228372  0.32220828     1.36900
C665        C  0.77132356  0.08060871  0.29134175     0.77700
O666        O  0.81219944  0.05339771  0.31101558    -0.60800
O667        O  0.79814202  0.05305084  0.33985514    -0.51700
C668        C  0.83209767  0.10370023  0.32293834     0.70300
O669        O  0.82282331  0.09935991  0.30670205    -0.46500
C670        C  0.77383510  0.10387651  0.34708116     0.75000
O671        O  0.78747839  0.09084798  0.29060242    -0.58400
O672        O  0.78132615  0.08695876  0.35213177    -0.48500
O673        O  0.76907087  0.07085441  0.30766943    -0.54800
C674        C  0.80704198  0.04294779  0.32622335     0.85200
O675        O  0.82432044  0.09592266  0.33859836    -0.56700
O676        O  0.77919494  0.10980470  0.32970102    -0.60000
In677      In  0.67508378  0.08387395  0.20585393     1.36900
C678        C  0.70664647  0.08090047  0.23128990     0.77700
O679        O  0.66809559  0.11187264  0.22402734    -0.60800
O680        O  0.64563614  0.08892239  0.22225212    -0.51700
C681        C  0.67383079  0.10474718  0.17095143     0.70300
O682        O  0.69015811  0.09961652  0.17958206    -0.46500
C683        C  0.66984683  0.04487344  0.19583690     0.75000
O684        O  0.70718514  0.09138593  0.21524283    -0.58400
O685        O  0.65747386  0.05461416  0.20672121    -0.48500
O686        O  0.68999880  0.07198052  0.23410866    -0.54800
C687        C  0.65069973  0.10599572  0.22940051     0.85200
O688        O  0.65814370  0.09832463  0.17978882    -0.56700
O689        O  0.68434358  0.05547884  0.18928575    -0.60000
In690      In  0.57776035  0.17804430  0.30766638     1.36900
C691        C  0.57500600  0.21107907  0.28445044     0.77700
O692        O  0.60463906  0.17357616  0.28744539    -0.60800
O693        O  0.58498561  0.14856422  0.29153177    -0.51700
C694        C  0.59814337  0.17576050  0.34281880     0.70300
O695        O  0.59274393  0.19231230  0.33488474    -0.46500
C696        C  0.53843420  0.17292403  0.31557642     0.75000
O697        O  0.58649985  0.21018128  0.29983056    -0.58400
O698        O  0.54844839  0.16058753  0.30483903    -0.48500
O699        O  0.56499156  0.19508806  0.28114492    -0.54800
C700        C  0.60078147  0.15535102  0.28307331     0.85200
O701        O  0.59214631  0.16028104  0.33321507    -0.56700
O702        O  0.54893912  0.18690267  0.32340604    -0.60000
In703      In  0.67621601  0.20198240  0.08833108     1.36900
C704        C  0.70844336  0.22630613  0.08514196     0.77700
O705        O  0.68509407  0.18547931  0.05996786    -0.60800
O706        O  0.65930399  0.20444940  0.05848158    -0.51700
C707        C  0.67543923  0.16715410  0.10922674     0.70300
O708        O  0.69122342  0.17761872  0.10672365    -0.46500
C709        C  0.65274729  0.22522197  0.11178564     0.75000
O710        O  0.70933604  0.20889887  0.09308055    -0.58400
O711        O  0.64639702  0.21727163  0.09546359    -0.48500
O712        O  0.69109551  0.23091670  0.07843197    -0.54800
C713        C  0.67143268  0.19308081  0.04893987     0.85200
O714        O  0.65992736  0.17429317  0.10048808    -0.56700
O715        O  0.67089057  0.22092684  0.11606688    -0.60000
In716      In  0.58133645  0.29784043  0.19066018     1.36900
C717        C  0.57795205  0.27376705  0.22321526     0.77700
O718        O  0.55242187  0.31420143  0.19887090    -0.60800
O719        O  0.55260378  0.29542288  0.17272862    -0.51700
C720        C  0.60242224  0.33231720  0.18779449     0.70300
O721        O  0.59944258  0.32338292  0.20448769    -0.46500
C722        C  0.60422935  0.27497269  0.16620956     0.75000
O723        O  0.58757448  0.29033110  0.22366151    -0.58400
O724        O  0.58716945  0.28189041  0.16094232    -0.48500
O725        O  0.56997359  0.26975290  0.20622572    -0.54800
C726        C  0.54232412  0.30657468  0.18441625     0.85200
O727        O  0.59340256  0.32431333  0.17288908    -0.56700
O728        O  0.60934199  0.27965017  0.18410773    -0.60000
In729      In  0.81686470  0.41396201  0.30188708     1.36900
C730        C  0.78571053  0.41929906  0.27644052     0.77700
O731        O  0.80835064  0.44152600  0.32059415    -0.60800
O732        O  0.83518326  0.44274722  0.30320936    -0.51700
C733        C  0.81556499  0.39080300  0.33506704     0.70300
O734        O  0.79998728  0.39562966  0.32503133    -0.46500
C735        C  0.84156774  0.39150119  0.27846306     0.75000
O736        O  0.78442451  0.40919385  0.29264860    -0.58400
O737        O  0.84720356  0.40765459  0.28718574    -0.48500
O738        O  0.80297181  0.42703414  0.27352639    -0.54800
C739        C  0.82323967  0.45206913  0.31493218     0.85200
O740        O  0.83173946  0.39853052  0.32844404    -0.56700
O741        O  0.82332509  0.38695059  0.28186907    -0.60000
In742      In  0.92103691  0.31892271  0.20679829     1.36900
C743        C  0.92547613  0.28899770  0.23369027     0.77700
O744        O  0.94981996  0.30954215  0.19086771    -0.60800
O745        O  0.94967017  0.33774816  0.20617068    -0.51700
C746        C  0.89890169  0.31573180  0.17298668     0.70300
O747        O  0.90184941  0.30123611  0.18509345    -0.46500
C748        C  0.89640753  0.34353339  0.22798220     0.75000
O749        O  0.91886750  0.28617147  0.21589487    -0.58400
O750        O  0.91377543  0.34896825  0.22200608    -0.48500
O751        O  0.93031848  0.30713893  0.23743620    -0.54800
C752        C  0.95989636  0.32489763  0.19626699     0.85200
O753        O  0.90839344  0.33176482  0.17763011    -0.56700
O754        O  0.89173443  0.32572353  0.22273390    -0.60000
In755      In  0.69830147  0.41695031  0.18241665     1.36900
C756        C  0.72388546  0.42187783  0.21358233     0.77700
O757        O  0.71863847  0.39015541  0.17808651    -0.60800
O758        O  0.71387536  0.40955769  0.15281462    -0.51700
C759        C  0.66419315  0.39481020  0.18380450     0.70300
O760        O  0.67238181  0.40254181  0.19932573    -0.46500
C761        C  0.68842593  0.45550689  0.17464543     0.75000
O762        O  0.70811550  0.41106925  0.21468215    -0.58400
O763        O  0.69843111  0.44470502  0.16238116    -0.48500
O764        O  0.72609713  0.43055794  0.19666719    -0.54800
C765        C  0.72272451  0.39402453  0.15976603     0.85200
O766        O  0.67300504  0.39926868  0.16738967    -0.56700
O767        O  0.68229152  0.44602673  0.19008345    -0.60000
In768      In  0.79981366  0.31654951  0.09181073     1.36900
C769        C  0.77258648  0.28683636  0.08676353     0.77700
O770        O  0.78179585  0.32388496  0.11962133    -0.60800
O771        O  0.78405459  0.34652177  0.09697843    -0.51700
C772        C  0.83432151  0.31575604  0.11317355     0.70300
O773        O  0.82373212  0.30013613  0.10983332    -0.46500
C774        C  0.81153255  0.32190371  0.05347049     0.75000
O775        O  0.78827363  0.28476208  0.09764420    -0.58400
O776        O  0.80206283  0.33524998  0.06346033    -0.48500
O777        O  0.77134117  0.30388381  0.07818839    -0.54800
C778        C  0.77672421  0.34143255  0.11394349     0.85200
O779        O  0.82740955  0.33165135  0.10506007    -0.56700
O780        O  0.81584598  0.30621260  0.06357360    -0.60000
In781      In  0.70409271  0.82169275  0.41864884     1.36900
C782        C  0.72986153  0.79079629  0.42175494     0.77700
O783        O  0.72370365  0.82774837  0.39168481    -0.60800
O784        O  0.71887230  0.85209166  0.41213195    -0.51700
C785        C  0.66905108  0.82051982  0.39809274     0.70300
O786        O  0.67975152  0.80509898  0.40167600    -0.46500
C787        C  0.69437806  0.82463730  0.45795463     0.75000
O788        O  0.71460507  0.79045041  0.41012059    -0.58400
O789        O  0.70321982  0.83879912  0.44853471    -0.48500
O790        O  0.73177139  0.80706013  0.43179624    -0.54800
C791        C  0.72746922  0.84597679  0.39608114     0.85200
O792        O  0.67597654  0.83667521  0.40580085    -0.56700
O793        O  0.68961275  0.80974830  0.44687562    -0.60000
In794      In  0.80155366  0.91558601  0.31786982     1.36900
C795        C  0.77997793  0.89324140  0.34355398     0.77700
O796        O  0.77048110  0.92376656  0.30656011    -0.60800
O797        O  0.79121890  0.91175086  0.28523965    -0.51700
C798        C  0.81038250  0.95495862  0.32288033     0.70300
O799        O  0.80289580  0.94409132  0.33671739    -0.46500
C800        C  0.83573350  0.89322480  0.31740291     0.75000
O801        O  0.78558385  0.91110506  0.34771676    -0.58400
O802        O  0.82483719  0.89616111  0.30188663    -0.48500
O803        O  0.78566753  0.88693611  0.32635955    -0.54800
C804        C  0.77353381  0.91840519  0.28841336     0.85200
O805        O  0.81473327  0.94522371  0.30691731    -0.56700
O806        O  0.82983415  0.90293391  0.33287714    -0.60000
In807      In  0.82132127  0.70060541  0.42323093     1.36900
C808        C  0.84694119  0.72096271  0.39947191     0.77700
O809        O  0.83505182  0.67138069  0.41164452    -0.60800
O810        O  0.80431826  0.67761217  0.40482079    -0.51700
C811        C  0.82720995  0.69123203  0.46237743     0.70300
O812        O  0.84079401  0.69881398  0.45129374    -0.46500
C813        C  0.79151157  0.72803343  0.42553659     0.75000
O814        O  0.85029516  0.71804060  0.41814737    -0.58400
O815        O  0.78894638  0.71045897  0.41833979    -0.48500
O816        O  0.83058784  0.71335356  0.39311960    -0.54800
C817        C  0.81923239  0.66592858  0.40222186     0.85200
O818        O  0.81095547  0.68727241  0.45300380    -0.56700
O819        O  0.80927004  0.73135225  0.43180791    -0.60000
In820      In  0.91877989  0.79498858  0.32324440     1.36900
C821        C  0.92157143  0.76741858  0.29361439     0.77700
O822        O  0.94751669  0.80983520  0.31198021    -0.60800
O823        O  0.94785408  0.79685222  0.34128507    -0.51700
C824        C  0.89658066  0.82920156  0.32197877     0.70300
O825        O  0.90166194  0.81931210  0.30634757    -0.46500
C826        C  0.89711193  0.77204441  0.34852048     0.75000
O827        O  0.91194410  0.78386693  0.29157588    -0.58400
O828        O  0.91347383  0.78052709  0.35384077    -0.48500
O829        O  0.93008695  0.76542455  0.31070055    -0.54800
C830        C  0.95787916  0.80562340  0.32756549     0.85200
O831        O  0.90361458  0.82194666  0.33828026    -0.56700
O832        O  0.89178598  0.77569949  0.33046034    -0.60000
In833      In  0.82059974  0.57810789  0.30800344     1.36900
C834        C  0.79070551  0.57203896  0.28139485     0.77700
O835        O  0.82656218  0.60412922  0.28684395    -0.60800
O836        O  0.85100600  0.58456880  0.29400038    -0.51700
C837        C  0.81998824  0.60239332  0.34074749     0.70300
O838        O  0.80496810  0.60008349  0.32905015    -0.46500
C839        C  0.82635186  0.53932039  0.31865232     0.75000
O840        O  0.78754597  0.57899047  0.29906460    -0.58400
O841        O  0.83926024  0.54965407  0.30908462    -0.48500
O842        O  0.80898623  0.56769383  0.27792135    -0.54800
C843        C  0.84499384  0.59982188  0.28405569     0.85200
O844        O  0.83502040  0.59149366  0.33614116    -0.56700
O845        O  0.81094789  0.54935595  0.32404050    -0.60000
In846      In  0.91904013  0.67178684  0.20733389     1.36900
C847        C  0.92175535  0.70215697  0.23404640     0.77700
O848        O  0.88955058  0.66483961  0.22235901    -0.60800
O849        O  0.91309557  0.64313569  0.22515567    -0.51700
C850        C  0.89902171  0.67218403  0.17193615     0.70300
O851        O  0.90168455  0.68775487  0.18281065    -0.46500
C852        C  0.95825154  0.66740798  0.19844292     0.75000
O853        O  0.91516673  0.70460738  0.21615902    -0.58400
O854        O  0.94774785  0.65312864  0.20568128    -0.48500
O855        O  0.92709735  0.68420631  0.23794881    -0.54800
C856        C  0.89514004  0.64809043  0.22974519     0.85200
O857        O  0.90738901  0.65638584  0.17885278    -0.56700
O858        O  0.94832684  0.68335001  0.19490794    -0.60000
In859      In  0.58262267  0.82087313  0.30358731     1.36900
C860        C  0.57901393  0.79007504  0.27740727     0.77700
O861        O  0.55387449  0.81005816  0.31848850    -0.60800
O862        O  0.55340792  0.83860530  0.30393630    -0.51700
C863        C  0.60510505  0.82065314  0.33754929     0.70300
O864        O  0.60357402  0.80558578  0.32579614    -0.46500
C865        C  0.60463643  0.84599798  0.28055973     0.75000
O866        O  0.58587477  0.78782400  0.29521948    -0.58400
O867        O  0.58805044  0.85125606  0.28857134    -0.48500
O868        O  0.57367474  0.80800275  0.27337544    -0.54800
C869        C  0.54340480  0.82517843  0.31318368     0.85200
O870        O  0.59425872  0.83557691  0.33240575    -0.56700
O871        O  0.61001378  0.82814620  0.28490638    -0.60000
In872      In  0.67737936  0.91793230  0.20249417     1.36900
C873        C  0.70808680  0.92124712  0.22888943     0.77700
O874        O  0.68778218  0.94721631  0.18853108    -0.60800
O875        O  0.65844734  0.94653190  0.20127598    -0.51700
C876        C  0.67781316  0.89545846  0.16830978     0.70300
O877        O  0.69354755  0.89967531  0.17839240    -0.46500
C878        C  0.65363197  0.89499703  0.22588450     0.75000
O879        O  0.71003633  0.91355983  0.21138025    -0.58400
O880        O  0.64773280  0.91173773  0.21859000    -0.48500
O881        O  0.69046175  0.92772664  0.23255771    -0.54800
C882        C  0.67206994  0.95712981  0.19304733     0.85200
O883        O  0.66198923  0.90380256  0.17511034    -0.56700
O884        O  0.67143147  0.89017397  0.22088625    -0.60000
In885      In  0.70489863  0.58062454  0.18616641     1.36900
C886        C  0.72954602  0.57432415  0.21796153     0.77700
O887        O  0.68781266  0.55171464  0.19236388    -0.60800
O888        O  0.70504768  0.55330649  0.16541562    -0.51700
C889        C  0.67114417  0.60323196  0.18647199     0.70300
O890        O  0.68160549  0.59976976  0.20218037    -0.46500
C891        C  0.72861692  0.60434134  0.16348479     0.75000
O892        O  0.71130187  0.57968846  0.21999492    -0.58400
O893        O  0.72320790  0.58674600  0.15805543    -0.48500
O894        O  0.73481908  0.57179252  0.19972743    -0.54800
C895        C  0.69400059  0.54256689  0.17669385     0.85200
O896        O  0.67774742  0.59458072  0.17067138    -0.56700
O897        O  0.72158291  0.60980607  0.18048180    -0.60000
In898      In  0.80301105  0.67813501  0.08854619     1.36900
C899        C  0.78068815  0.65389167  0.11217189     0.77700
O900        O  0.82978291  0.66115814  0.10150008    -0.60800
O901        O  0.82939486  0.69312887  0.10420626    -0.51700
C902        C  0.81058087  0.67363013  0.04864036     0.70300
O903        O  0.80121033  0.66056363  0.05902421    -0.46500
C904        C  0.77709493  0.70919780  0.08642079     0.75000
O905        O  0.78775061  0.64832605  0.09520094    -0.58400
O906        O  0.79362133  0.71041312  0.09613883    -0.48500
O907        O  0.78524720  0.67187331  0.11699984    -0.54800
C908        C  0.83838956  0.67678128  0.10852093     0.85200
O909        O  0.81714007  0.68835173  0.05904623    -0.56700
O910        O  0.77415504  0.69219941  0.07809269    -0.60000
In911      In  0.58619168  0.69859627  0.18700020     1.36900
C912        C  0.58255836  0.72595367  0.21677049     0.77700
O913        O  0.61507490  0.71446607  0.17900345    -0.60800
O914        O  0.59196870  0.71334504  0.15657747    -0.51700
C915        C  0.60777258  0.66425236  0.18847562     0.70300
O916        O  0.60604953  0.67624894  0.20333585    -0.46500
C917        C  0.54690358  0.68924417  0.18296083     0.75000
O918        O  0.58842867  0.70798072  0.21985439    -0.58400
O919        O  0.55704896  0.69744499  0.16895891    -0.48500
O920        O  0.57863318  0.72979773  0.19838268    -0.54800
C921        C  0.60962041  0.71925965  0.16124905     0.85200
O922        O  0.59750609  0.66935348  0.17307278    -0.56700
O923        O  0.55723872  0.68485411  0.19849739    -0.60000
In924      In  0.68222045  0.79577943  0.08730959     1.36900
C925        C  0.71455937  0.77129394  0.08576058     0.77700
O926        O  0.67543296  0.77772107  0.11552545    -0.60800
O927        O  0.65338374  0.77790544  0.09217014    -0.51700
C928        C  0.68087314  0.83085279  0.10813462     0.70300
O929        O  0.69697077  0.82122399  0.10450961    -0.46500
C930        C  0.67629184  0.80482666  0.04777006     0.75000
O931        O  0.71480530  0.78809538  0.09499821    -0.58400
O932        O  0.66365938  0.79535603  0.05851708    -0.48500
O933        O  0.69799338  0.76751106  0.07689688    -0.54800
C934        C  0.65840607  0.77139560  0.10950023     0.85200
O935        O  0.66527482  0.82282510  0.10039269    -0.56700
O936        O  0.69176865  0.81053332  0.05757139    -0.60000
In937      In  0.08651627  0.31855956  0.20617589     1.36900
C938        C  0.08236271  0.28701686  0.23161134     0.77700
O939        O  0.11365620  0.32486903  0.22588159    -0.60800
O940        O  0.09366078  0.34925219  0.21987782    -0.51700
C941        C  0.10820260  0.31703493  0.17175789     0.70300
O942        O  0.10244167  0.30146395  0.18123754    -0.46500
C943        C  0.04759856  0.32565612  0.19655537     0.75000
O944        O  0.09399218  0.28670067  0.21640742    -0.58400
O945        O  0.05779369  0.33683636  0.20832428    -0.48500
O946        O  0.07273144  0.30345199  0.23358411    -0.54800
C947        C  0.10962441  0.34336923  0.22869476     0.85200
O948        O  0.10167774  0.33344069  0.17923777    -0.56700
O949        O  0.05775617  0.31136818  0.18875612    -0.60000
In950      In  0.18524044  0.41452730  0.30545117     1.36900
C951        C  0.21624758  0.41881407  0.28016562     0.77700
O952        O  0.17921909  0.38715894  0.28610640    -0.60800
O953        O  0.15595844  0.40916429  0.28833070    -0.51700
C954        C  0.18404951  0.39302819  0.33967496     0.70300
O955        O  0.20030466  0.39672397  0.33033366    -0.46500
C956        C  0.18092399  0.45309215  0.31705100     0.75000
O957        O  0.21721790  0.40777064  0.29583861    -0.58400
O958        O  0.16737894  0.44353463  0.30737004    -0.48500
O959        O  0.19948943  0.42774973  0.27780832    -0.54800
C960        C  0.16167130  0.39249706  0.28068031     0.85200
O961        O  0.16853085  0.40104327  0.33180561    -0.56700
O962        O  0.19617842  0.44247782  0.32160615    -0.60000
In963      In  0.20580731  0.31708096  0.08900951     1.36900
C964        C  0.23023705  0.28503494  0.08502597     0.77700
O965        O  0.18873719  0.30754269  0.06099262    -0.60800
O966        O  0.20663928  0.33412479  0.05940831    -0.51700
C967        C  0.17124683  0.31748490  0.11029127     0.70300
O968        O  0.18102342  0.30151907  0.10626506    -0.46500
C969        C  0.22948469  0.34105754  0.11179520     0.75000
O970        O  0.21501190  0.28518362  0.09662978    -0.58400
O971        O  0.22043769  0.34740446  0.09608008    -0.48500
O972        O  0.23283051  0.30137026  0.07535480    -0.54800
C973        C  0.19530242  0.32177427  0.05004679     0.85200
O974        O  0.17880298  0.33329932  0.10262452    -0.56700
O975        O  0.22620474  0.32264476  0.11568876    -0.60000
In976      In  0.30329569  0.41557664  0.18637578     1.36900
C977        C  0.27809547  0.41905620  0.21790117     0.77700
O978        O  0.31994431  0.44414458  0.19501949    -0.60800
O979        O  0.30315565  0.44411946  0.16762965    -0.51700
C980        C  0.33683834  0.39280815  0.18704146     0.70300
O981        O  0.32668415  0.39725224  0.20262424    -0.46500
C982        C  0.28021415  0.39274564  0.16219467     0.75000
O983        O  0.29535474  0.41096269  0.21925049    -0.58400
O984        O  0.28620229  0.41022951  0.15720512    -0.48500
O985        O  0.27403855  0.42606361  0.20053373    -0.54800
C986        C  0.31371853  0.45426845  0.17997738     0.85200
O987        O  0.33054480  0.40129122  0.17099451    -0.56700
O988        O  0.28636067  0.38690448  0.17937966    -0.60000
In989      In  0.32179593  0.19577989  0.08417657     1.36900
C990        C  0.29051261  0.22122670  0.08049348     0.77700
O991        O  0.35194875  0.21036064  0.09142414    -0.60800
O992        O  0.32770635  0.21432584  0.11205354    -0.51700
C993        C  0.32131975  0.16135180  0.10531633     0.70300
O994        O  0.30537582  0.17068792  0.10030787    -0.46500
C995        C  0.32840273  0.18673280  0.04525477     0.75000
O996        O  0.28986178  0.20539777  0.09125232    -0.58400
O997        O  0.34017141  0.19767406  0.05568641    -0.48500
O998        O  0.30706888  0.22370043  0.07127447    -0.54800
C999        C  0.34597005  0.21811020  0.10792551     0.85200
O1000       O  0.33736034  0.16894675  0.09823162    -0.56700
O1001       O  0.31386507  0.17929535  0.05524228    -0.60000
In1002     In  0.41621531  0.29224976  0.18646026     1.36900
C1003       C  0.41766584  0.26541614  0.21680479     0.77700
O1004       O  0.41231290  0.27347526  0.15805966    -0.60800
O1005       O  0.38715971  0.27728951  0.17764138    -0.51700
C1006       C  0.39578183  0.32731277  0.18595904     0.70300
O1007       O  0.39895609  0.31713201  0.20189458    -0.46500
C1008       C  0.45501232  0.30246951  0.18203814     0.75000
O1009       O  0.40890036  0.28238696  0.21835056    -0.58400
O1010       O  0.44444497  0.29510234  0.16782192    -0.48500
O1011       O  0.42624455  0.26261187  0.19990290    -0.54800
C1012       C  0.39396644  0.26930815  0.16161486     0.85200
O1013       O  0.40392611  0.31989960  0.17025870    -0.56700
O1014       O  0.44533558  0.30557195  0.19828937    -0.60000
In1015     In  0.31436875  0.07890178  0.20221426     1.36900
C1016       C  0.28138221  0.07717694  0.22566638     0.77700
O1017       O  0.30573309  0.05035203  0.18583225    -0.60800
O1018       O  0.33338712  0.05078628  0.20233626    -0.51700
C1019       C  0.31677103  0.09956665  0.16744470     0.70300
O1020       O  0.30022017  0.09347473  0.17476953    -0.46500
C1021       C  0.33776874  0.09936887  0.22823909     0.75000
O1022       O  0.28346620  0.08997725  0.21160237    -0.58400
O1023       O  0.34230239  0.08183081  0.22195260    -0.48500
O1024       O  0.29591602  0.06482025  0.22715519    -0.54800
C1025       C  0.32107759  0.04053868  0.19181371     0.85200
O1026       O  0.33216301  0.09415213  0.17749111    -0.56700
O1027       O  0.32162656  0.10636112  0.22072299    -0.60000
In1028     In  0.41126074  0.17193034  0.30495648     1.36900
C1029       C  0.41425683  0.20124017  0.27724290     0.77700
O1030       O  0.44006085  0.18482329  0.31772068    -0.60800
O1031       O  0.44063380  0.15438338  0.30752718    -0.51700
C1032       C  0.39017163  0.17342106  0.33966661     0.70300
O1033       O  0.39301637  0.18867403  0.32848813    -0.46500
C1034       C  0.38852430  0.14639330  0.28315331     0.75000
O1035       O  0.40660595  0.20408831  0.29461712    -0.58400
O1036       O  0.40619842  0.14186490  0.28909954    -0.48500
O1037       O  0.42010301  0.18327594  0.27412476    -0.54800
C1038       C  0.45062981  0.16921640  0.31444832     0.85200
O1039       O  0.39888574  0.15749361  0.33347939    -0.56700
O1040       O  0.38260863  0.16372050  0.28883739    -0.60000
In1041     In  0.19830038  0.08289272  0.32273016     1.36900
C1042       C  0.22205782  0.10425592  0.34786363     0.77700
O1043       O  0.22350703  0.06833178  0.30533110    -0.60800
O1044       O  0.20799298  0.09282219  0.29139755    -0.51700
C1045       C  0.18905755  0.04383413  0.32729867     0.70300
O1046       O  0.20030184  0.05328689  0.33965831    -0.46500
C1047       C  0.16335058  0.10340943  0.32399177     0.75000
O1048       O  0.21292013  0.08833465  0.35324750    -0.58400
O1049       O  0.17202598  0.09866130  0.30758283    -0.48500
O1050       O  0.21922674  0.10902139  0.32950331    -0.54800
C1051       C  0.22170936  0.07950936  0.28988731     0.85200
O1052       O  0.18147458  0.05482674  0.31356002    -0.56700
O1053       O  0.17220099  0.09681349  0.33964256    -0.60000
In1054     In  0.29538288  0.17696936  0.42492239     1.36900
C1055       C  0.26959660  0.20798853  0.42829872     0.77700
O1056       O  0.28085824  0.16994980  0.39501003    -0.60800
O1057       O  0.27574312  0.14945076  0.41930088    -0.51700
C1058       C  0.32939720  0.17504938  0.40318197     0.70300
O1059       O  0.32059941  0.19159162  0.40731710    -0.46500
C1060       C  0.30697559  0.17171979  0.46361654     0.75000
O1061       O  0.28654937  0.20952903  0.41953201    -0.58400
O1062       O  0.29806471  0.15807440  0.45346260    -0.48500
O1063       O  0.26610877  0.19061952  0.43550869    -0.54800
C1064       C  0.27257867  0.15373026  0.40080726     0.85200
O1065       O  0.32149253  0.15971049  0.41146084    -0.56700
O1066       O  0.31069531  0.18756795  0.45355537    -0.60000
In1067     In  0.08028090  0.19990863  0.32591960     1.36900
C1068       C  0.07705590  0.22474357  0.29386219     0.77700
O1069       O  0.05139688  0.18186974  0.32176843    -0.60800
O1070       O  0.05176428  0.20552820  0.34347670    -0.51700
C1071       C  0.10087948  0.16500827  0.32463346     0.70300
O1072       O  0.09432692  0.17380433  0.30890549    -0.46500
C1073       C  0.10440190  0.22198248  0.35002933     0.75000
O1074       O  0.08709517  0.20842359  0.29336508    -0.58400
O1075       O  0.08926759  0.21233177  0.35666696    -0.48500
O1076       O  0.06817083  0.22785743  0.31053498    -0.54800
C1077       C  0.04145163  0.19208695  0.33459291     0.85200
O1078       O  0.09593342  0.17365391  0.34104365    -0.56700
O1079       O  0.10724125  0.21986398  0.33119892    -0.60000
In1080     In  0.17804489  0.29763270  0.42405382     1.36900
C1081       C  0.20898454  0.27180202  0.42689154     0.77700
O1082       O  0.18805085  0.31309144  0.45289126    -0.60800
O1083       O  0.15953298  0.29844617  0.45273322    -0.51700
C1084       C  0.17851216  0.33187254  0.40245677     0.70300
O1085       O  0.19432179  0.32382707  0.40965112    -0.46500
C1086       C  0.15383440  0.27385131  0.40184605     0.75000
O1087       O  0.20919058  0.28698249  0.41522263    -0.58400
O1088       O  0.17165259  0.27845920  0.39669039    -0.48500
O1089       O  0.19300209  0.27018352  0.43727191    -0.54800
C1090       C  0.17271389  0.30783387  0.46302450     0.85200
O1091       O  0.16235135  0.32302687  0.40751855    -0.56700
O1092       O  0.14822658  0.28168291  0.41847829    -0.60000
In1093     In  0.41676389  0.82181412  0.30352696     1.36900
C1094       C  0.42098871  0.78986551  0.27886228     0.77700
O1095       O  0.39154436  0.82679261  0.28135222    -0.60800
O1096       O  0.41040877  0.85187146  0.28828721    -0.51700
C1097       C  0.39403905  0.82186308  0.33731292     0.70300
O1098       O  0.40052780  0.80592351  0.32893415    -0.46500
C1099       C  0.45563956  0.82763455  0.31359465     0.75000
O1100       O  0.40955156  0.78960956  0.29424045    -0.58400
O1101       O  0.44570554  0.83990391  0.30276811    -0.48500
O1102       O  0.43040024  0.80635536  0.27649826    -0.54800
C1103       C  0.39568596  0.84516219  0.27795362     0.85200
O1104       O  0.39992608  0.83796200  0.32878952    -0.56700
O1105       O  0.44515878  0.81320736  0.32050009    -0.60000
In1106     In  0.32081382  0.91435373  0.20026225     1.36900
C1107       C  0.29137234  0.91783955  0.22767495     0.77700
O1108       O  0.32922398  0.88541958  0.21579902    -0.60800
O1109       O  0.35083536  0.90924200  0.21570904    -0.51700
C1110       C  0.31992859  0.89402348  0.16532673     0.70300
O1111       O  0.30460834  0.89596193  0.17663427    -0.46500
C1112       C  0.32369958  0.95321744  0.19025492     0.75000
O1113       O  0.28908107  0.90864631  0.21096581    -0.58400
O1114       O  0.33796205  0.94377645  0.19893033    -0.48500
O1115       O  0.30885101  0.92518406  0.23025221    -0.54800
C1116       C  0.34650468  0.89145516  0.22138079     0.85200
O1117       O  0.33539036  0.90352728  0.17146766    -0.56700
O1118       O  0.30870455  0.94227805  0.18564593    -0.60000
In1119     In  0.42008166  0.69973328  0.18693009     1.36900
C1120       C  0.42313812  0.72701346  0.21683122     0.77700
O1121       O  0.44863526  0.68649406  0.19983529    -0.60800
O1122       O  0.44918212  0.69627405  0.16926786    -0.51700
C1123       C  0.39729716  0.66621350  0.18854438     0.70300
O1124       O  0.39963906  0.67826827  0.20322769    -0.46500
C1125       C  0.39924329  0.72273158  0.16110222     0.75000
O1126       O  0.41539781  0.70967676  0.21942696    -0.58400
O1127       O  0.41581639  0.71448558  0.15617027    -0.48500
O1128       O  0.42955349  0.73001737  0.19902452    -0.54800
C1129       C  0.45913292  0.68929355  0.18410464     0.85200
O1130       O  0.40740951  0.67091972  0.17297592    -0.56700
O1131       O  0.39320494  0.71847399  0.17874693    -0.60000
In1132     In  0.32240761  0.79379522  0.08743694     1.36900
C1133       C  0.29283117  0.76637847  0.08715092     0.77700
O1134       O  0.30873685  0.80521334  0.05857556    -0.60800
O1135       O  0.34011763  0.79833882  0.05864121    -0.51700
C1136       C  0.32028748  0.82933596  0.10646941     0.70300
O1137       O  0.30558048  0.81720966  0.10509755    -0.46500
C1138       C  0.34930039  0.77282798  0.10913409     0.75000
O1139       O  0.29117982  0.78334995  0.09591130    -0.58400
O1140       O  0.35082856  0.77495778  0.09013442    -0.48500
O1141       O  0.30960337  0.76368500  0.07840015    -0.54800
C1142       C  0.32489148  0.80393661  0.04843905     0.85200
O1143       O  0.33617751  0.82339440  0.09754156    -0.56700
O1144       O  0.33432457  0.78185928  0.11688184    -0.60000
In1145     In  0.20150334  0.67681101  0.09184160     1.36900
C1146       C  0.22849862  0.70648469  0.08958877     0.77700
O1147       O  0.21893923  0.66910783  0.11997501    -0.60800
O1148       O  0.21971228  0.64798935  0.09563042    -0.51700
C1149       C  0.16683488  0.67702925  0.11270221     0.70300
O1150       O  0.17700429  0.69286759  0.10929866    -0.46500
C1151       C  0.19117382  0.67319002  0.05276174     0.75000
O1152       O  0.21161755  0.70870163  0.09838841    -0.58400
O1153       O  0.19652597  0.65829642  0.06354923    -0.48500
O1154       O  0.23108415  0.68923338  0.08162078    -0.54800
C1155       C  0.22611613  0.65271189  0.11314658     0.85200
O1156       O  0.17415957  0.66121418  0.10475972    -0.56700
O1157       O  0.19008840  0.68972738  0.06239655    -0.60000
In1158     In  0.30250021  0.58029508  0.18704287     1.36900
C1159       C  0.27545555  0.57644977  0.21713210     0.77700
O1160       O  0.28771394  0.60931997  0.17752807    -0.60800
O1161       O  0.28498617  0.58409579  0.15769963    -0.51700
C1162       C  0.33595132  0.60310831  0.18796959     0.70300
O1163       O  0.32371154  0.60184819  0.20263610    -0.46500
C1164       C  0.31403162  0.54172014  0.18199610     0.75000
O1165       O  0.29361711  0.58166978  0.22022878    -0.58400
O1166       O  0.30592113  0.55209696  0.16806257    -0.48500
O1167       O  0.27140953  0.57287113  0.19871638    -0.54800
C1168       C  0.28059399  0.60247256  0.16105440     0.85200
O1169       O  0.33151067  0.59181744  0.17308520    -0.56700
O1170       O  0.31718753  0.55152322  0.19818503    -0.60000
In1171     In  0.08455716  0.67583207  0.20953244     1.36900
C1172       C  0.08019603  0.70720330  0.23473804     0.77700
O1173       O  0.05561247  0.68353199  0.19300803    -0.60800
O1174       O  0.05603177  0.65775374  0.21208633    -0.51700
C1175       C  0.10556950  0.67735382  0.17506250     0.70300
O1176       O  0.10390191  0.69214922  0.18710524    -0.46500
C1177       C  0.10822475  0.65167742  0.23178848     0.75000
O1178       O  0.08687244  0.70906771  0.21686281    -0.58400
O1179       O  0.09246750  0.64526753  0.22292028    -0.48500
O1180       O  0.07529517  0.68931183  0.23939871    -0.54800
C1181       C  0.04569815  0.66905353  0.20061821     0.85200
O1182       O  0.09601405  0.66169162  0.18052343    -0.56700
O1183       O  0.11206537  0.67010563  0.22848640    -0.60000
In1184     In  0.18308727  0.57897438  0.30660833     1.36900
C1185       C  0.21246740  0.57577262  0.27883522     0.77700
O1186       O  0.19482525  0.55036559  0.32088654    -0.60800
O1187       O  0.16444984  0.55068098  0.31053487    -0.51700
C1188       C  0.18398681  0.60152306  0.34053197     0.70300
O1189       O  0.19940499  0.59771813  0.32987694    -0.46500
C1190       C  0.15801744  0.60091949  0.28380004     0.75000
O1191       O  0.21531312  0.58365168  0.29613514    -0.58400
O1192       O  0.15391699  0.58298589  0.28917892    -0.48500
O1193       O  0.19480238  0.56896390  0.27611697    -0.54800
C1194       C  0.17871187  0.54041677  0.31813814     0.85200
O1195       O  0.16809055  0.59273477  0.33439312    -0.56700
O1196       O  0.17465649  0.60758725  0.29054572    -0.60000
In1197     In  0.29750193  0.81971521  0.42160447     1.36900
C1198       C  0.27445957  0.84423668  0.39922994     0.77700
O1199       O  0.32293035  0.83669132  0.40666595    -0.60800
O1200       O  0.32292797  0.80467819  0.40422767    -0.51700
C1201       C  0.30805979  0.82376297  0.46079432     0.70300
O1202       O  0.29761656  0.83682354  0.45142581    -0.46500
C1203       C  0.27059307  0.78964332  0.42400168     0.75000
O1204       O  0.28246729  0.84989405  0.41579345    -0.58400
O1205       O  0.28724448  0.78767127  0.41470100    -0.48500
O1206       O  0.27846298  0.82615016  0.39430831    -0.54800
C1207       C  0.33130894  0.82116448  0.39922337     0.85200
O1208       O  0.31397260  0.80929571  0.44969323    -0.56700
O1209       O  0.26833910  0.80663707  0.43255320    -0.60000
In1210     In  0.20346576  0.91780549  0.32113491     1.36900
C1211       C  0.23067135  0.92093204  0.29137026     0.77700
O1212       O  0.18933166  0.94673987  0.31028113    -0.60800
O1213       O  0.20023177  0.94582622  0.34053316    -0.51700
C1214       C  0.16928735  0.89628636  0.31942237     0.70300
O1215       O  0.17999423  0.90003872  0.30402976    -0.46500
C1216       C  0.22517399  0.89450619  0.34604103     0.75000
O1217       O  0.21343966  0.91297592  0.28888513    -0.58400
O1218       O  0.22059774  0.91263467  0.35037669    -0.48500
O1219       O  0.23370601  0.92767861  0.30907738    -0.54800
C1220       C  0.19233652  0.95635948  0.32661613     0.85200
O1221       O  0.17558878  0.90458536  0.33557229    -0.56700
O1222       O  0.21835145  0.88851367  0.32914868    -0.60000
In1223     In  0.17831668  0.70011908  0.42260075     1.36900
C1224       C  0.20876550  0.72678465  0.42472306     0.77700
O1225       O  0.17004904  0.71463283  0.39291086    -0.60800
O1226       O  0.14979517  0.71837382  0.41756991    -0.51700
C1227       C  0.18043405  0.66505311  0.40180650     0.70300
O1228       O  0.19489079  0.67744535  0.40343836    -0.46500
C1229       C  0.17271522  0.69186921  0.46205957     0.75000
O1230       O  0.21145228  0.70832107  0.42035310    -0.58400
O1231       O  0.15853267  0.69790353  0.45065808    -0.48500
O1232       O  0.19058422  0.73126077  0.42859008    -0.54800
C1233       C  0.15395421  0.72272890  0.39935605     0.85200
O1234       O  0.16482456  0.67022968  0.41164501    -0.56700
O1235       O  0.18931100  0.68922543  0.45296716    -0.60000
In1236     In  0.08503089  0.80029010  0.32302119     1.36900
C1237       C  0.08170424  0.77299711  0.29338545     0.77700
O1238       O  0.11234888  0.78123022  0.32948773    -0.60800
O1239       O  0.09143139  0.78575003  0.35346390    -0.51700
C1240       C  0.10693666  0.83437157  0.32173426     0.70300
O1241       O  0.10275502  0.82395070  0.30617126    -0.46500
C1242       C  0.04572468  0.80979274  0.32686705     0.75000
O1243       O  0.09084513  0.78967615  0.29111106    -0.58400
O1244       O  0.05588537  0.80138958  0.34080350    -0.48500
O1245       O  0.07393790  0.77067013  0.31074668    -0.54800
C1246       C  0.10755841  0.77719277  0.34757277     0.85200
O1247       O  0.09895447  0.82781728  0.33785927    -0.56700
O1248       O  0.05616105  0.81467382  0.31159702    -0.60000
C1249       C  0.11963669  0.76327696  0.36065545    -0.00100
C1250       C  0.11605680  0.76305972  0.38173085    -0.11900
C1251       C  0.12684054  0.74997282  0.39466505     0.02200
C1252       C  0.14149898  0.73652349  0.38651026    -0.00200
C1253       C  0.14507234  0.73677628  0.36544767    -0.11900
C1254       C  0.13436516  0.74985892  0.35253643     0.02100
H1255       H  0.10490658  0.77332077  0.38820977     0.15000
H1256       H  0.15626241  0.72657676  0.35893165     0.15000
C1257       C  0.13854988  0.74863954  0.33098471     0.36700
C1258       C  0.12294205  0.75125105  0.41625023     0.36600
N1259       N  0.14192800  0.74755822  0.31373140    -0.43700
N1260       N  0.11981705  0.75239009  0.43354665    -0.43700
C1261       C  0.15151900  0.88237665  0.31899908    -0.00100
C1262       C  0.14130809  0.87844378  0.33732656    -0.11900
C1263       C  0.12617821  0.86355332  0.33850556     0.02200
C1264       C  0.12092595  0.85209915  0.32102205    -0.00200
C1265       C  0.13040937  0.85676527  0.30245899    -0.11900
C1266       C  0.14550070  0.87169170  0.30125867     0.02100
H1267       H  0.14554438  0.88663623  0.35103550     0.15000
H1268       H  0.12645356  0.84830532  0.28882851     0.15000
C1269       C  0.15477406  0.87519842  0.28166822     0.36700
C1270       C  0.11673452  0.86019493  0.35801757     0.36600
N1271       N  0.16212778  0.87795998  0.26592900    -0.43700
N1272       N  0.10920769  0.85759502  0.37369777    -0.43700
C1273       C  0.25480944  0.77355655  0.42456173    -0.00100
C1274       C  0.26010735  0.75345595  0.41965646    -0.11900
C1275       C  0.24558795  0.73785562  0.41978874     0.02200
C1276       C  0.22519592  0.74226664  0.42494584    -0.00200
C1277       C  0.21996643  0.76239782  0.42976599    -0.11900
C1278       C  0.23438334  0.77795896  0.42949163     0.02100
H1279       H  0.27568066  0.74988020  0.41569699     0.15000
H1280       H  0.20437450  0.76616748  0.43347295     0.15000
C1281       C  0.22742280  0.79840648  0.43346984     0.36700
C1282       C  0.25212645  0.71762690  0.41432997     0.36600
N1283       N  0.22179277  0.81478611  0.43654942    -0.43700
N1284       N  0.25742989  0.70144360  0.40990683    -0.43700
C1285       C  0.23758278  0.88140677  0.35960224    -0.00100
C1286       C  0.24232779  0.88831933  0.37931129    -0.11900
C1287       C  0.25420100  0.87660351  0.39259471     0.02200
C1288       C  0.26159667  0.85745070  0.38621399    -0.00200
C1289       C  0.25669181  0.85051233  0.36657778    -0.11900
C1290       C  0.24497392  0.86221758  0.35328056     0.02100
H1291       H  0.23672609  0.90296121  0.38442757     0.15000
H1292       H  0.26229979  0.83590056  0.36137317     0.15000
C1293       C  0.24135931  0.85420211  0.33309888     0.36700
C1294       C  0.25827069  0.88460543  0.41267240     0.36600
N1295       N  0.23857036  0.84776259  0.31692202    -0.43700
N1296       N  0.26149201  0.89108496  0.42875142    -0.43700
C1297       C  0.18425768  0.61594860  0.35806972    -0.00100
C1298       C  0.16700783  0.61768915  0.37055630    -0.11900
C1299       C  0.16568141  0.63278657  0.38568688     0.02200
C1300       C  0.18177799  0.64677002  0.38840033    -0.00200
C1301       C  0.19943098  0.64422761  0.37669589    -0.11900
C1302       C  0.20083054  0.62914528  0.36172151     0.02100
H1303       H  0.15428540  0.60749244  0.36822207     0.15000
H1304       H  0.21207327  0.65459751  0.37868239     0.15000
C1305       C  0.21916431  0.62843360  0.34972099     0.36700
C1306       C  0.14754963  0.63361115  0.39795224     0.36600
N1307       N  0.23383948  0.62792705  0.34008318    -0.43700
N1308       N  0.13303294  0.63414174  0.40782732    -0.43700
C1309       C  0.07906382  0.72447693  0.24921455    -0.00100
C1310       C  0.09002770  0.74223415  0.24482111    -0.11900
C1311       C  0.09095828  0.75837482  0.25871748     0.02200
C1312       C  0.08044642  0.75706784  0.27741996    -0.00200
C1313       C  0.06896263  0.73956733  0.28149438    -0.11900
C1314       C  0.06824863  0.72334414  0.26773795     0.02100
H1315       H  0.09848617  0.74329479  0.23071570     0.15000
H1316       H  0.06070202  0.73834019  0.29570360     0.15000
C1317       C  0.05632169  0.70579024  0.27322152     0.36700
C1318       C  0.10341602  0.77565572  0.25356670     0.36600
N1319       N  0.04677787  0.69175660  0.27774327    -0.43700
N1320       N  0.11347971  0.78945282  0.24945997    -0.43700
C1321       C  0.14467542  0.61338724  0.27064343    -0.00100
C1322       C  0.14650592  0.63458677  0.27174924    -0.11900
C1323       C  0.13491393  0.64727875  0.25927358     0.02200
C1324       C  0.12096121  0.63878379  0.24522760    -0.00200
C1325       C  0.11901296  0.61753129  0.24419896    -0.11900
C1326       C  0.13081973  0.60481600  0.25660429     0.02100
H1327       H  0.15706866  0.64134647  0.28249562     0.15000
H1328       H  0.10851586  0.61078735  0.23338926     0.15000
C1329       C  0.12917085  0.58310574  0.25383259     0.36700
C1330       C  0.13756172  0.66895394  0.26157074     0.36600
N1331       N  0.12801213  0.56570328  0.25154133    -0.43700
N1332       N  0.13974005  0.68631147  0.26339990    -0.43700
C1333       C  0.22845065  0.57495925  0.26295831    -0.00100
C1334       C  0.24893960  0.57531921  0.26889473    -0.11900
C1335       C  0.26456714  0.57545627  0.25440762     0.02200
C1336       C  0.25980078  0.57521638  0.23338418    -0.00200
C1337       C  0.23928145  0.57455301  0.22751471    -0.11900
C1338       C  0.22369260  0.57459019  0.24196535     0.02100
H1339       H  0.25278670  0.57555961  0.28495846     0.15000
H1340       H  0.23530256  0.57463386  0.21148187     0.15000
C1341       C  0.20300292  0.57555888  0.23469182     0.36700
C1342       C  0.28525557  0.57578063  0.26168022     0.36600
N1343       N  0.18645957  0.57651159  0.22880532    -0.43700
N1344       N  0.30179601  0.57606842  0.26764154    -0.43700
C1345       C  0.14856984  0.67704536  0.12592723    -0.00100
C1346       C  0.14193041  0.69561411  0.13416627    -0.11900
C1347       C  0.12702490  0.69624903  0.14929667     0.02200
C1348       C  0.11856656  0.67795917  0.15668160    -0.00200
C1349       C  0.12393139  0.65957347  0.14725075    -0.11900
C1350       C  0.13867771  0.65894974  0.13194815     0.02100
H1351       H  0.14887665  0.70971562  0.12927768     0.15000
H1352       H  0.11720696  0.64546077  0.15241354     0.15000
C1353       C  0.14370060  0.63939839  0.12330818     0.36700
C1354       C  0.12095365  0.71588192  0.15707284     0.36600
N1355       N  0.14763125  0.62370434  0.11637694    -0.43700
N1356       N  0.11600298  0.73158078  0.16330289    -0.43700
C1357       C  0.26776846  0.61514845  0.14737911    -0.00100
C1358       C  0.26537763  0.63580909  0.15224230    -0.11900
C1359       C  0.25243484  0.64837039  0.14100184     0.02200
C1360       C  0.24099350  0.64022812  0.12467396    -0.00200
C1361       C  0.24406383  0.61982254  0.11913983    -0.11900
C1362       C  0.25738758  0.60731217  0.13017308     0.02100
H1363       H  0.27368684  0.64229512  0.16496094     0.15000
H1364       H  0.23582474  0.61350858  0.10629125     0.15000
C1365       C  0.25990423  0.58656640  0.12345895     0.36700
C1366       C  0.25188468  0.66970972  0.14619443     0.36600
N1367       N  0.26193812  0.56999084  0.11790296    -0.43700
N1368       N  0.25163584  0.68682755  0.15026343    -0.43700
C1369       C  0.27641756  0.75099366  0.08729809    -0.00100
C1370       C  0.25763778  0.75616387  0.09601363    -0.11900
C1371       C  0.24172836  0.74210438  0.09694768     0.02200
C1372       C  0.24438977  0.72238266  0.08880402    -0.00200
C1373       C  0.26313156  0.71728749  0.08000646    -0.11900
C1374       C  0.27908613  0.73121569  0.07929261     0.02100
H1375       H  0.25536352  0.77124721  0.10229156     0.15000
H1376       H  0.26553075  0.70216408  0.07386891     0.15000
C1377       C  0.29808811  0.72441918  0.07070679     0.36700
C1378       C  0.22304918  0.74840024  0.10654331     0.36600
N1379       N  0.31330284  0.71886314  0.06389876    -0.43700
N1380       N  0.20813719  0.75348776  0.11432038    -0.43700
C1381       C  0.38319765  0.64858162  0.18925100    -0.00100
C1382       C  0.38004687  0.63700324  0.17151372    -0.11900
C1383       C  0.36536699  0.62157428  0.17081521     0.02200
C1384       C  0.35340095  0.61744291  0.18819733    -0.00200
C1385       C  0.35720677  0.62842916  0.20615190    -0.11900
C1386       C  0.37183538  0.64379795  0.20686941     0.02100
H1387       H  0.38869393  0.64036399  0.15790176     0.15000
H1388       H  0.34834456  0.62535788  0.21969719     0.15000
C1389       C  0.37436930  0.65460104  0.22587478     0.36700
C1390       C  0.36260237  0.61080248  0.15183797     0.36600
N1391       N  0.37634925  0.66325203  0.24110972    -0.43700
N1392       N  0.36047591  0.60222356  0.13658172    -0.43700
C1393       C  0.38774586  0.73647144  0.14757282    -0.00100
C1394       C  0.38788871  0.73317095  0.12645605    -0.11900
C1395       C  0.37584763  0.74504044  0.11343790     0.02200
C1396       C  0.36354509  0.76067435  0.12162066    -0.00200
C1397       C  0.36411220  0.76440159  0.14265274    -0.11900
C1398       C  0.37609924  0.75261003  0.15558821     0.02100
H1399       H  0.39688669  0.72085862  0.12018783     0.15000
H1400       H  0.35508864  0.77660963  0.14909389     0.15000
C1401       C  0.37660905  0.75783865  0.17696540     0.36700
C1402       C  0.37569831  0.74014617  0.09199654     0.36600
N1403       N  0.37712894  0.76206468  0.19407131    -0.43700
N1404       N  0.37555167  0.73616646  0.07482413    -0.43700
C1405       C  0.27519267  0.91966342  0.24326293    -0.00100
C1406       C  0.28007943  0.92846565  0.26216050    -0.11900
C1407       C  0.26581994  0.92957149  0.27788905     0.02200
C1408       C  0.24606140  0.92167562  0.27490270    -0.00200
C1409       C  0.24098495  0.91351362  0.25577303    -0.11900
C1410       C  0.25521154  0.91250986  0.24001845     0.02100
H1411       H  0.29526238  0.93426233  0.26484536     0.15000
H1412       H  0.22583387  0.90762890  0.25310765     0.15000
C1413       C  0.24871538  0.90406965  0.22076692     0.36700
C1414       C  0.27214770  0.93863560  0.29691698     0.36600
N1415       N  0.24345095  0.89735143  0.20533804    -0.43700
N1416       N  0.27728367  0.94592277  0.31213064    -0.43700
C1417       C  0.31991723  0.88046226  0.14725685    -0.00100
C1418       C  0.30148076  0.87160581  0.14115871    -0.11900
C1419       C  0.30101502  0.85572619  0.12697647     0.02200
C1420       C  0.31935270  0.84835480  0.11856483    -0.00200
C1421       C  0.33755810  0.85838924  0.12331072    -0.11900
C1422       C  0.33802316  0.87429060  0.13748523     0.02100
H1423       H  0.28738844  0.87649906  0.14813637     0.15000
H1424       H  0.35170390  0.85314461  0.11671437     0.15000
C1425       C  0.35750581  0.88304307  0.14246562     0.36700
C1426       C  0.28153255  0.84699820  0.12187673     0.36600
N1427       N  0.37313791  0.89001786  0.14646414    -0.43700
N1428       N  0.26594202  0.83997449  0.11778843    -0.43700
C1429       C  0.42409380  0.74266403  0.23318433    -0.00100
C1430       C  0.41523708  0.73850579  0.25220152    -0.11900
C1431       C  0.41454252  0.75329426  0.26761954     0.02200
C1432       C  0.42274630  0.77282273  0.26410062    -0.00200
C1433       C  0.43230318  0.77665712  0.24542011    -0.11900
C1434       C  0.43305431  0.76193861  0.23007043     0.02100
H1435       H  0.40856063  0.72371717  0.25499535     0.15000
H1436       H  0.43886948  0.79147691  0.24251677     0.15000
C1437       C  0.44292681  0.76735738  0.21124317     0.36700
C1438       C  0.40550428  0.74787139  0.28686646     0.36600
N1439       N  0.45084385  0.77175740  0.19617565    -0.43700
N1440       N  0.39834404  0.74347303  0.30231559    -0.43700
C1441       C  0.37985364  0.82174419  0.35495987    -0.00100
C1442       C  0.37027322  0.83998089  0.36060595    -0.11900
C1443       C  0.35502469  0.84035698  0.37546736     0.02200
C1444       C  0.34894924  0.82211692  0.38510142    -0.00200
C1445       C  0.35917873  0.80404744  0.38012454    -0.11900
C1446       C  0.37453936  0.80370752  0.36537854     0.02100
H1447       H  0.37421962  0.85398813  0.35290215     0.15000
H1448       H  0.35496055  0.78998259  0.38757497     0.15000
C1449       C  0.38444567  0.78455504  0.36129074     0.36700
C1450       C  0.34538299  0.85960320  0.37977585     0.36600
N1451       N  0.39242496  0.76921358  0.35807199    -0.43700
N1452       N  0.33766620  0.87503144  0.38322112    -0.43700
C1453       C  0.38411693  0.85736688  0.26284586    -0.00100
C1454       C  0.36896554  0.84750988  0.25141235    -0.11900
C1455       C  0.35725739  0.85800517  0.23710895     0.02200
C1456       C  0.36014665  0.87908781  0.23436423    -0.00200
C1457       C  0.37579323  0.88883340  0.24516035    -0.11900
C1458       C  0.38786412  0.87821086  0.25915535     0.02100
H1459       H  0.36628937  0.83138860  0.25349367     0.15000
H1460       H  0.37841135  0.90494786  0.24295110     0.15000
C1461       C  0.40390605  0.88922355  0.26931616     0.36700
C1462       C  0.34295228  0.84649294  0.22502224     0.36600
N1463       N  0.41680364  0.89821748  0.27722211    -0.43700
N1464       N  0.33169754  0.83713210  0.21523209    -0.43700
C1465       C  0.14085028  0.26046369  0.38907546    -0.00100
C1466       C  0.14635788  0.25744950  0.36865093    -0.11900
C1467       C  0.13493788  0.24495538  0.35573497     0.02200
C1468       C  0.11745063  0.23497544  0.36320168    -0.00200
C1469       C  0.11204103  0.23782557  0.38371474    -0.11900
C1470       C  0.12349114  0.25039994  0.39662984     0.02100
H1471       H  0.15966103  0.26502675  0.36261812     0.15000
H1472       H  0.09874727  0.23024001  0.38974350     0.15000
C1473       C  0.11732069  0.25217696  0.41763520     0.36700
C1474       C  0.14172638  0.24275679  0.33494806     0.36600
N1475       N  0.11235499  0.25350908  0.43447521    -0.43700
N1476       N  0.14721659  0.24103967  0.31830688    -0.43700
C1477       C  0.25481283  0.22498932  0.42938823    -0.00100
C1478       C  0.25751179  0.24180776  0.41653502    -0.11900
C1479       C  0.24319645  0.25754530  0.41575741     0.02200
C1480       C  0.22563651  0.25664023  0.42808639    -0.00200
C1481       C  0.22339612  0.24023040  0.44153047    -0.11900
C1482       C  0.23768522  0.22453625  0.44231695     0.02100
H1483       H  0.27065442  0.24247596  0.40664404     0.15000
H1484       H  0.21020358  0.23942789  0.45134686     0.15000
C1485       C  0.23425382  0.20830731  0.45666368     0.36700
C1486       C  0.24693044  0.27415672  0.40193509     0.36600
N1487       N  0.23136495  0.19539817  0.46823450    -0.43700
N1488       N  0.25003561  0.28744077  0.39085419    -0.43700
C1489       C  0.18631122  0.02147552  0.32806536    -0.00100
C1490       C  0.19144111  0.01102440  0.34599081    -0.11900
C1491       C  0.19229521  0.98973117  0.34641310     0.02200
C1492       C  0.18813847  0.97846598  0.32850416    -0.00200
C1493       C  0.18167280  0.98891449  0.31103557    -0.11900
C1494       C  0.18079338  0.01012505  0.31060586     0.02100
H1495       H  0.19543670  0.01953251  0.35958036     0.15000
H1496       H  0.17823857  0.98054375  0.29720980     0.15000
C1497       C  0.17568516  0.01966675  0.29148432     0.36700
C1498       C  0.19801620  0.98002711  0.36527314     0.36600
N1499       N  0.17168506  0.02724356  0.27610568    -0.43700
N1500       N  0.20255606  0.97227454  0.38041530    -0.43700
C1501       C  0.14503084  0.11659980  0.32466770    -0.00100
C1502       C  0.13627882  0.12293881  0.30620768    -0.11900
C1503       C  0.12109945  0.13785883  0.30574100     0.02200
C1504       C  0.11430308  0.14682048  0.32411414    -0.00200
C1505       C  0.12200621  0.13938595  0.34262787    -0.11900
C1506       C  0.13718011  0.12448996  0.34309691     0.02100
H1507       H  0.14184244  0.11678210  0.29194022     0.15000
H1508       H  0.11677369  0.14583217  0.35689216     0.15000
C1509       C  0.14493744  0.11841904  0.36275074     0.36700
C1510       C  0.11344670  0.14406779  0.28609562     0.36600
N1511       N  0.15114982  0.11361159  0.37851823    -0.43700
N1512       N  0.10739302  0.14898625  0.27030125    -0.43700
C1513       C  0.23504386  0.11646777  0.36176204    -0.00100
C1514       C  0.24952000  0.12958549  0.35326948    -0.11900
C1515       C  0.26194744  0.14173898  0.36560396     0.02200
C1516       C  0.26008002  0.14088594  0.38705032    -0.00200
C1517       C  0.24570228  0.12767807  0.39555420    -0.11900
C1518       C  0.23312325  0.11567481  0.38318790     0.02100
H1519       H  0.25122446  0.13031083  0.33686259     0.15000
H1520       H  0.24392199  0.12707004  0.41195553     0.15000
C1521       C  0.21775109  0.10350247  0.39293855     0.36700
C1522       C  0.27671660  0.15458630  0.35573787     0.36600
N1523       N  0.20534299  0.09387539  0.40078174    -0.43700
N1524       N  0.28851853  0.16488010  0.34779682    -0.43700
C1525       C  0.37671325  0.17382965  0.35779969    -0.00100
C1526       C  0.36757833  0.15562253  0.36407414    -0.11900
C1527       C  0.35268130  0.15545375  0.37928188     0.02200
C1528       C  0.34682311  0.17383498  0.38886577    -0.00200
C1529       C  0.35670201  0.19188763  0.38327176    -0.11900
C1530       C  0.37145258  0.19206420  0.36792721     0.02100
H1531       H  0.37137237  0.14152601  0.35638465     0.15000
H1532       H  0.35255299  0.20608106  0.39058500     0.15000
C1533       C  0.38084261  0.21122988  0.36294781     0.36700
C1534       C  0.34287894  0.13634363  0.38368949     0.36600
N1535       N  0.38831202  0.22665008  0.35907102    -0.43700
N1536       N  0.33500485  0.12101027  0.38709044    -0.43700
C1537       C  0.26395248  0.07700922  0.23995940    -0.00100
C1538       C  0.26145346  0.06007882  0.25268519    -0.11900
C1539       C  0.24712300  0.06013351  0.26837001     0.02200
C1540       C  0.23504511  0.07756950  0.27180615    -0.00200
C1541       C  0.23651989  0.09393969  0.25820622    -0.11900
C1542       C  0.25075515  0.09381695  0.24237226     0.02100
H1543       H  0.27105605  0.04683302  0.25067491     0.15000
H1544       H  0.22707746  0.10726825  0.26041523     0.15000
C1545       C  0.25205556  0.11158118  0.22957544     0.36700
C1546       C  0.24519063  0.04203541  0.28062387     0.36600
N1547       N  0.25308708  0.12582239  0.21932395    -0.43700
N1548       N  0.24356415  0.02753081  0.29041686    -0.43700
C1549       C  0.32349491  0.01847270  0.18806560    -0.00100
C1550       C  0.30657601  0.00756150  0.18105080    -0.11900
C1551       C  0.30663801  0.98634630  0.18049797     0.02200
C1552       C  0.32400531  0.97551239  0.18709030    -0.00200
C1553       C  0.34145168  0.98646400  0.19270636    -0.11900
C1554       C  0.34139389  0.00773771  0.19315727     0.02100
H1555       H  0.29280958  0.01558193  0.17684323     0.15000
H1556       H  0.35502975  0.97840059  0.19741232     0.15000
C1557       C  0.35984017  0.01801408  0.19913633     0.36700
C1558       C  0.28824371  0.97629908  0.17398299     0.36600
N1559       N  0.37466415  0.02621875  0.20384274    -0.43700
N1560       N  0.27348577  0.96828078  0.16877218    -0.43700
C1561       C  0.37562877  0.13307149  0.27016336    -0.00100
C1562       C  0.35566196  0.13941004  0.26611942    -0.11900
C1563       C  0.34301412  0.12850886  0.25295591     0.02200
C1564       C  0.35032276  0.11082754  0.24314558    -0.00200
C1565       C  0.37004987  0.10401812  0.24768544    -0.11900
C1566       C  0.38267398  0.11485591  0.26110345     0.02100
H1567       H  0.34981456  0.15309607  0.27322548     0.15000
H1568       H  0.37576821  0.09030237  0.24053029     0.15000
C1569       C  0.40275488  0.10695847  0.26500447     0.36700
C1570       C  0.32248166  0.13574481  0.25021133     0.36600
N1571       N  0.41880109  0.10049713  0.26813169    -0.43700
N1572       N  0.30600037  0.14145595  0.24805794    -0.43700
C1573       C  0.41752126  0.24968060  0.23302270    -0.00100
C1574       C  0.42716041  0.23100516  0.22916087    -0.11900
C1575       C  0.42647557  0.21507935  0.24324324     0.02200
C1576       C  0.41603966  0.21767597  0.26187846    -0.00200
C1577       C  0.40682535  0.23649767  0.26595338    -0.11900
C1578       C  0.40735683  0.25236198  0.25179108     0.02100
H1579       H  0.43506816  0.22865052  0.21488355     0.15000
H1580       H  0.39881041  0.23878341  0.28018080     0.15000
C1581       C  0.39692060  0.27096557  0.25692900     0.36700
C1582       C  0.43660404  0.19632210  0.23797036     0.36600
N1583       N  0.38844855  0.28579718  0.26112657    -0.43700
N1584       N  0.44470974  0.18130964  0.23367739    -0.43700
C1585       C  0.32110392  0.14363548  0.11923798    -0.00100
C1586       C  0.30270431  0.13339225  0.12251866    -0.11900
C1587       C  0.30107787  0.11820341  0.13734332     0.02200
C1588       C  0.31813263  0.11308842  0.14942573    -0.00200
C1589       C  0.33675834  0.12263375  0.14541776    -0.11900
C1590       C  0.33837946  0.13782586  0.13064589     0.02100
H1591       H  0.28937276  0.13755705  0.11374833     0.15000
H1592       H  0.34999198  0.11892562  0.15453355     0.15000
C1593       C  0.35764236  0.14809832  0.12868836     0.36700
C1594       C  0.28165483  0.10837764  0.13986132     0.36600
N1595       N  0.37305799  0.15638535  0.12724293    -0.43700
N1596       N  0.26608302  0.10049263  0.14179178    -0.43700
C1597       C  0.35888498  0.23077694  0.12148641    -0.00100
C1598       C  0.34976880  0.23973841  0.13860611    -0.11900
C1599       C  0.36077733  0.25219017  0.15187533     0.02200
C1600       C  0.38156544  0.25604364  0.14815719    -0.00200
C1601       C  0.39080216  0.24686466  0.13119651    -0.11900
C1602       C  0.37975336  0.23432698  0.11792294     0.02100
H1603       H  0.33381158  0.23713383  0.14166231     0.15000
H1604       H  0.40677464  0.24947348  0.12823701     0.15000
C1605       C  0.39038240  0.22535114  0.10093620     0.36700
C1606       C  0.35010937  0.26078260  0.16905340     0.36600
N1607       N  0.39906006  0.21822891  0.08738132    -0.43700
N1608       N  0.34149884  0.26761549  0.18279937    -0.43700
C1609       C  0.31730012  0.47649480  0.17800634    -0.00100
C1610       C  0.32713877  0.48662906  0.19408345    -0.11900
C1611       C  0.32731971  0.50787572  0.19531041     0.02200
C1612       C  0.31792737  0.51955650  0.17986739    -0.00200
C1613       C  0.30982974  0.50944226  0.16282878    -0.11900
C1614       C  0.30917899  0.48819070  0.16185439     0.02100
H1615       H  0.33370677  0.47793535  0.20646769     0.15000
H1616       H  0.30277167  0.51813530  0.15071486     0.15000
C1617       C  0.29894999  0.47908132  0.14464192     0.36700
C1618       C  0.33629117  0.51699423  0.21320279     0.36600
N1619       N  0.29057360  0.47200486  0.13083917    -0.43700
N1620       N  0.34339563  0.52404665  0.22771491    -0.43700
C1621       C  0.35386579  0.37790024  0.18738154    -0.00100
C1622       C  0.36353178  0.37270081  0.16901935    -0.11900
C1623       C  0.37765132  0.35671861  0.16807945     0.02200
C1624       C  0.38274070  0.34580910  0.18594300    -0.00200
C1625       C  0.37382818  0.35172630  0.20441979    -0.11900
C1626       C  0.35940929  0.36729058  0.20529606     0.02100
H1627       H  0.35943005  0.38057422  0.15511648     0.15000
H1628       H  0.37748247  0.34356183  0.21828168     0.15000
C1629       C  0.34986247  0.37104527  0.22472038     0.36700
C1630       C  0.38581473  0.35136579  0.14840251     0.36600
N1631       N  0.34214559  0.37379148  0.24029650    -0.43700
N1632       N  0.39217890  0.34706646  0.13255748    -0.43700
C1633       C  0.24419460  0.26740481  0.08301264    -0.00100
C1634       C  0.25800799  0.26707473  0.06673664    -0.11900
C1635       C  0.27253224  0.25162475  0.06491209     0.02200
C1636       C  0.27368684  0.23620287  0.07981464    -0.00200
C1637       C  0.25919316  0.23591256  0.09544917    -0.11900
C1638       C  0.24454181  0.25123678  0.09717701     0.02100
H1639       H  0.25758596  0.27903796  0.05541494     0.15000
H1640       H  0.25974699  0.22405777  0.10688246     0.15000
C1641       C  0.23069576  0.25026712  0.11415482     0.36700
C1642       C  0.28580575  0.25190142  0.04744161     0.36600
N1643       N  0.21963268  0.24939365  0.12778445    -0.43700
N1644       N  0.29632407  0.25209125  0.03335427    -0.43700
C1645       C  0.24271815  0.35411189  0.12468825    -0.00100
C1646       C  0.24104758  0.37535552  0.12314843    -0.11900
C1647       C  0.25296467  0.38825467  0.13528804     0.02200
C1648       C  0.26716042  0.37992540  0.14907537    -0.00200
C1649       C  0.26876377  0.35875227  0.15072556    -0.11900
C1650       C  0.25677741  0.34584357  0.13876641     0.02100
H1651       H  0.23008944  0.38193856  0.11272925     0.15000
H1652       H  0.27960307  0.35221439  0.16131169     0.15000
C1653       C  0.25961117  0.32421027  0.14113634     0.36700
C1654       C  0.24953399  0.40989976  0.13412390     0.36600
N1655       N  0.26192145  0.30689226  0.14312100    -0.43700
N1656       N  0.24675659  0.42725053  0.13342177    -0.43700
C1657       C  0.23306841  0.42043934  0.26531502    -0.00100
C1658       C  0.24866016  0.40589352  0.26587407    -0.11900
C1659       C  0.26372332  0.40539272  0.25088566     0.02200
C1660       C  0.26351070  0.41985482  0.23500189    -0.00200
C1661       C  0.24834523  0.43483255  0.23484041    -0.11900
C1662       C  0.23327101  0.43532954  0.24981191     0.02100
H1663       H  0.24866194  0.39432302  0.27760749     0.15000
H1664       H  0.24815572  0.44613363  0.22284548     0.15000
C1665       C  0.21828142  0.45132871  0.24882053     0.36700
C1666       C  0.27830558  0.38900786  0.25146914     0.36600
N1667       N  0.20624826  0.46412809  0.24810216    -0.43700
N1668       N  0.28989375  0.37579184  0.25186008    -0.43700
C1669       C  0.17942573  0.47520418  0.32144549    -0.00100
C1670       C  0.16125182  0.48534216  0.31670971    -0.11900
C1671       C  0.16003712  0.50658887  0.31713159     0.02200
C1672       C  0.17744584  0.51820958  0.32199708    -0.00200
C1673       C  0.19504056  0.50802698  0.32850942    -0.11900
C1674       C  0.19616862  0.48678613  0.32840392     0.02100
H1675       H  0.14806197  0.47667779  0.31195927     0.15000
H1676       H  0.20838489  0.51667996  0.33282444     0.15000
C1677       C  0.21507211  0.47754962  0.33463459     0.36700
C1678       C  0.14085363  0.51588492  0.31197485     0.36600
N1679       N  0.23025583  0.47027711  0.33970824    -0.43700
N1680       N  0.12539918  0.52323566  0.30795314    -0.43700
C1681       C  0.18287752  0.37946029  0.35763984    -0.00100
C1682       C  0.16377240  0.37187190  0.36319626    -0.11900
C1683       C  0.16180837  0.35675679  0.37799528     0.02200
C1684       C  0.17921299  0.34946822  0.38833127    -0.00200
C1685       C  0.19821668  0.35791700  0.38357082    -0.11900
C1686       C  0.20025505  0.37249127  0.36820192     0.02100
H1687       H  0.15031441  0.37690075  0.35510287     0.15000
H1688       H  0.21174835  0.35247751  0.39125919     0.15000
C1689       C  0.22045938  0.37932079  0.36317606     0.36700
C1690       C  0.14189945  0.34811035  0.38096324     0.36600
N1691       N  0.23669516  0.38458964  0.35906593    -0.43700
N1692       N  0.12592855  0.34109883  0.38298318    -0.43700
C1693       C  0.08026844  0.26987195  0.24624856    -0.00100
C1694       C  0.06470869  0.27075772  0.26083801    -0.11900
C1695       C  0.06270200  0.25576283  0.27582118     0.02200
C1696       C  0.07674945  0.23953590  0.27676219    -0.00200
C1697       C  0.09177350  0.23815089  0.26167422    -0.11900
C1698       C  0.09358872  0.25297752  0.24646850     0.02100
H1699       H  0.05401463  0.28329006  0.26061425     0.15000
H1700       H  0.10255292  0.22569403  0.26204111     0.15000
C1701       C  0.10957594  0.25054291  0.23166451     0.36700
C1702       C  0.04580340  0.25727664  0.28971123     0.36600
N1703       N  0.12236407  0.24844435  0.21979291    -0.43700
N1704       N  0.03215098  0.25842597  0.30071069    -0.43700
C1705       C  0.12234567  0.31634169  0.15407641    -0.00100
C1706       C  0.12693674  0.33449150  0.14379563    -0.11900
C1707       C  0.14203439  0.33518876  0.12875698     0.02200
C1708       C  0.15314414  0.31743530  0.12384170    -0.00200
C1709       C  0.14777165  0.29910524  0.13333183    -0.11900
C1710       C  0.13262475  0.29836321  0.14822526     0.02100
H1711       H  0.11901527  0.34837062  0.14783024     0.15000
H1712       H  0.15591812  0.28526516  0.12961427     0.15000
C1713       C  0.12869959  0.27898059  0.15769115     0.36700
C1714       C  0.14581566  0.35440526  0.11890543     0.36600
N1715       N  0.12565713  0.26338569  0.16519417    -0.43700
N1716       N  0.14866428  0.36985095  0.11102282    -0.43700
C1717       C  0.12277981  0.35678016  0.24127913    -0.00100
C1718       C  0.14299269  0.35087723  0.24459309    -0.11900
C1719       C  0.15604368  0.36242735  0.25684732     0.02200
C1720       C  0.14880186  0.38021251  0.26662072    -0.00200
C1721       C  0.12867788  0.38635589  0.26294344    -0.11900
C1722       C  0.11573853  0.37496736  0.25032853     0.02100
H1723       H  0.14873969  0.33717841  0.23741732     0.15000
H1724       H  0.12290490  0.40004263  0.27010305     0.15000
C1725       C  0.09519729  0.38207544  0.24747478     0.36700
C1726       C  0.17683511  0.35568598  0.25869101     0.36600
N1727       N  0.07875657  0.38784746  0.24518509    -0.43700
N1728       N  0.19350368  0.35027356  0.25999841    -0.43700
C1729       C  0.52453793  0.68620283  0.18205132    -0.00100
C1730       C  0.51423714  0.68178143  0.20021672    -0.11900
C1731       C  0.49300613  0.68159998  0.20107108     0.02200
C1732       C  0.48147046  0.68599152  0.18340740    -0.00200
C1733       C  0.49176521  0.68913905  0.16495165    -0.11900
C1734       C  0.51303970  0.68918754  0.16409826     0.02100
H1735       H  0.52278809  0.67921678  0.21410636     0.15000
H1736       H  0.48318677  0.69214350  0.15117086     0.15000
C1737       C  0.52255174  0.69246390  0.14460401     0.36700
C1738       C  0.48366824  0.67766675  0.22054539     0.36600
N1739       N  0.53015226  0.69498986  0.12894655    -0.43700
N1740       N  0.47620849  0.67450845  0.23615674    -0.43700
C1741       C  0.64571803  0.75736532  0.12184972    -0.00100
C1742       C  0.65485733  0.74704481  0.13818669    -0.11900
C1743       C  0.64363493  0.73410137  0.15077575     0.02200
C1744       C  0.62260488  0.73137498  0.14731133    -0.00200
C1745       C  0.61358551  0.74116262  0.13058365    -0.11900
C1746       C  0.62485814  0.75405099  0.11791917     0.02100
H1747       H  0.67093129  0.74905251  0.14116953     0.15000
H1748       H  0.59749874  0.73918706  0.12766637     0.15000
C1749       C  0.61436451  0.76420486  0.10152304     0.36700
C1750       C  0.65428037  0.72360623  0.16688372     0.36600
N1751       N  0.60592837  0.77237073  0.08840833    -0.43700
N1752       N  0.66283239  0.71515713  0.17974386    -0.43700
C1753       C  0.76208035  0.72603029  0.08515393    -0.00100
C1754       C  0.76328564  0.74237977  0.09892972    -0.11900
C1755       C  0.74839588  0.75769154  0.09919275     0.02200
C1756       C  0.73185513  0.75677865  0.08540509    -0.00200
C1757       C  0.73115138  0.74084127  0.07120941    -0.11900
C1758       C  0.74598954  0.72568556  0.07086173     0.02100
H1759       H  0.77559180  0.74293651  0.10991141     0.15000
H1760       H  0.71879094  0.74008230  0.06029500     0.15000
C1761       C  0.74426203  0.71011459  0.05542522     0.36700
C1762       C  0.75017530  0.77361272  0.11425797     0.36600
N1763       N  0.74288764  0.69766784  0.04302741    -0.43700
N1764       N  0.75169492  0.78632317  0.12637360    -0.43700
C1765       C  0.62177450  0.64650874  0.18856647    -0.00100
C1766       C  0.62765284  0.63797891  0.16985625    -0.11900
C1767       C  0.64313528  0.62338311  0.16875056     0.02200
C1768       C  0.65309953  0.61689111  0.18671915    -0.00200
C1769       C  0.64634712  0.62454521  0.20552482    -0.11900
C1770       C  0.63087125  0.63912134  0.20661882     0.02100
H1771       H  0.62074279  0.64336177  0.15586679     0.15000
H1772       H  0.65348735  0.61945877  0.21950932     0.15000
C1773       C  0.62480161  0.64623198  0.22651492     0.36700
C1774       C  0.64892279  0.61608496  0.14884720     0.36600
N1775       N  0.61994210  0.65186382  0.24248210    -0.43700
N1776       N  0.65353357  0.61029235  0.13286345    -0.43700
C1777       C  0.74221249  0.61725247  0.15087823    -0.00100
C1778       C  0.75142148  0.60860447  0.13362699    -0.11900
C1779       C  0.76411841  0.62002622  0.12095242     0.02200
C1780       C  0.76788587  0.64073381  0.12537039    -0.00200
C1781       C  0.75892880  0.64930359  0.14281115    -0.11900
C1782       C  0.74624767  0.63787341  0.15550768     0.02100
H1783       H  0.74870274  0.59276368  0.12994629     0.15000
H1784       H  0.76164603  0.66514379  0.14649492     0.15000
C1785       C  0.73741061  0.64793290  0.17293183     0.36700
C1786       C  0.77303764  0.60994120  0.10360013     0.36600
N1787       N  0.73035159  0.65603355  0.18688211    -0.43700
N1788       N  0.78016266  0.60183180  0.08969190    -0.43700
C1789       C  0.67803609  0.88103981  0.15072950    -0.00100
C1790       C  0.69685313  0.87436065  0.14319319    -0.11900
C1791       C  0.69810464  0.85895601  0.12846284     0.02200
C1792       C  0.68024559  0.84937304  0.12125434    -0.00200
C1793       C  0.66138518  0.85684308  0.12788014    -0.11900
C1794       C  0.66011771  0.87259168  0.14229501     0.02100
H1795       H  0.71076022  0.88098911  0.14905754     0.15000
H1796       H  0.64750966  0.84996097  0.12224416     0.15000
C1797       C  0.64018782  0.87924231  0.14851529     0.36700
C1798       C  0.71796401  0.85341908  0.12100116     0.36600
N1799       N  0.62420309  0.88463580  0.15341432    -0.43700
N1800       N  0.73380424  0.84900291  0.11482061    -0.43700
C1801       C  0.57808876  0.77323727  0.26230031    -0.00100
C1802       C  0.58631777  0.75422888  0.26751445    -0.11900
C1803       C  0.58742369  0.73837665  0.25325951     0.02200
C1804       C  0.58050538  0.74149501  0.23309588    -0.00200
C1805       C  0.57156538  0.76022761  0.22814363    -0.11900
C1806       C  0.57006722  0.77590577  0.24247840     0.02100
H1807       H  0.59223404  0.75178019  0.28273618     0.15000
H1808       H  0.56569963  0.76272809  0.21290841     0.15000
C1809       C  0.56006302  0.79442910  0.23627799     0.36700
C1810       C  0.59595005  0.71925148  0.25980649     0.36600
N1811       N  0.55191567  0.80919221  0.23128924    -0.43700
N1812       N  0.60267596  0.70389072  0.26510004    -0.43700
C1813       C  0.52107351  0.82673380  0.31640544    -0.00100
C1814       C  0.51093487  0.84430954  0.30969308    -0.11900
C1815       C  0.48968378  0.84553718  0.30968287     0.02200
C1816       C  0.47800259  0.82889450  0.31656250    -0.00200
C1817       C  0.48815466  0.81187258  0.32449558    -0.11900
C1818       C  0.50938128  0.81058551  0.32441832     0.02100
H1819       H  0.51961039  0.85697752  0.30376608     0.15000
H1820       H  0.47946594  0.79899774  0.32994337     0.15000
C1821       C  0.51847888  0.79205323  0.33184158     0.36700
C1822       C  0.48040656  0.86391779  0.30209547     0.36600
N1823       N  0.52559485  0.77711335  0.33778814    -0.43700
N1824       N  0.47301709  0.87867062  0.29601368    -0.43700
C1825       C  0.61681560  0.85914636  0.26678315    -0.00100
C1826       C  0.63440691  0.85085929  0.25800115    -0.11900
C1827       C  0.64636891  0.86204585  0.24450733     0.02200
C1828       C  0.64095133  0.88223668  0.23951109    -0.00200
C1829       C  0.62329037  0.89054969  0.24814944    -0.11900
C1830       C  0.61125590  0.87928508  0.26165956     0.02100
H1831       H  0.63884225  0.83538795  0.26153197     0.15000
H1832       H  0.61893409  0.90601707  0.24450876     0.15000
C1833       C  0.59339823  0.88890741  0.26996633     0.36700
C1834       C  0.66385550  0.85208983  0.23575710     0.36600
N1835       N  0.57909763  0.89670131  0.27657121    -0.43700
N1836       N  0.67783829  0.84409678  0.22871899    -0.43700
C1837       C  0.98058009  0.66609855  0.19570173    -0.00100
C1838       C  0.99120900  0.65038392  0.20546852    -0.11900
C1839       C  0.01244691  0.65038982  0.20641032     0.02200
C1840       C  0.02355296  0.66636067  0.19730043    -0.00200
C1841       C  0.01296275  0.68119808  0.18618890    -0.11900
C1842       C  0.99172891  0.68125351  0.18535262     0.02100
H1843       H  0.98289830  0.63852490  0.21328927     0.15000
H1844       H  0.02123634  0.69335228  0.17879262     0.15000
C1845       C  0.98188398  0.69740157  0.17420620     0.36700
C1846       C  0.02226654  0.63420841  0.21752785     0.36600
N1847       N  0.97396426  0.71035832  0.16533091    -0.43700
N1848       N  0.03022226  0.62131540  0.22646446    -0.43700
C1849       C  0.88625450  0.67264167  0.15322930    -0.00100
C1850       C  0.88076118  0.69164432  0.14520886    -0.11900
C1851       C  0.86622180  0.69336297  0.12972283     0.02200
C1852       C  0.85661346  0.67575458  0.12195042    -0.00200
C1853       C  0.86325306  0.65664704  0.12886709    -0.11900
C1854       C  0.87791675  0.65492728  0.14430044     0.02100
H1855       H  0.88738058  0.70537142  0.15152525     0.15000
H1856       H  0.85628824  0.64294321  0.12289278     0.15000
C1857       C  0.88315643  0.63481958  0.15133551     0.36700
C1858       C  0.86115276  0.71349203  0.12263327     0.36600
N1859       N  0.88731365  0.61867010  0.15690920    -0.43700
N1860       N  0.85713415  0.72964855  0.11698479    -0.43700
C1861       C  0.77452123  0.57012464  0.26569813    -0.00100
C1862       C  0.75480446  0.57680728  0.27036005    -0.11900
C1863       C  0.73963223  0.57773654  0.25537228     0.02200
C1864       C  0.74402789  0.57171987  0.23515881    -0.00200
C1865       C  0.76342981  0.56403371  0.23079856    -0.11900
C1866       C  0.77860245  0.56321426  0.24568784     0.02100
H1867       H  0.75136353  0.58203758  0.28563564     0.15000
H1868       H  0.76702476  0.55910793  0.21545445     0.15000
C1869       C  0.79832995  0.55581406  0.23958632     0.36700
C1870       C  0.72008313  0.58579117  0.26112744     0.36600
N1871       N  0.81412569  0.54995175  0.23460280    -0.43700
N1872       N  0.70448336  0.59233244  0.26587427    -0.43700
C1873       C  0.85815562  0.61172157  0.27006709    -0.00100
C1874       C  0.84971913  0.62851768  0.25992644    -0.11900
C1875       C  0.86129361  0.64041368  0.24665879     0.02200
C1876       C  0.88192307  0.63554744  0.24309776    -0.00200
C1877       C  0.89030714  0.61859941  0.25303141    -0.11900
C1878       C  0.87872575  0.60675105  0.26639861     0.02100
H1879       H  0.83394613  0.63251506  0.26242404     0.15000
H1880       H  0.90609448  0.61466387  0.25054223     0.15000
C1881       C  0.88846633  0.58965673  0.27610568     0.36700
C1882       C  0.85145536  0.65751882  0.23703123     0.36600
N1883       N  0.89621790  0.57594009  0.28391893    -0.43700
N1884       N  0.84362252  0.67126670  0.22935076    -0.43700
C1885       C  0.92239831  0.75133903  0.27774073    -0.00100
C1886       C  0.92931975  0.73195585  0.28336047    -0.11900
C1887       C  0.92961249  0.71585164  0.26943197     0.02200
C1888       C  0.92275768  0.71890854  0.24922507    -0.00200
C1889       C  0.91625819  0.73842269  0.24346851    -0.11900
C1890       C  0.91605768  0.75456452  0.25742314     0.02100
H1891       H  0.93430650  0.72922266  0.29886544     0.15000
H1892       H  0.91117622  0.74111890  0.22799142     0.15000
C1893       C  0.90953942  0.77425753  0.25029387     0.36700
C1894       C  0.93697076  0.69642856  0.27652784     0.36600
N1895       N  0.90436951  0.79004467  0.24453416    -0.43700
N1896       N  0.94292367  0.68090346  0.28225036    -0.43700
C1897       C  0.98014172  0.80961551  0.32896521    -0.00100
C1898       C  0.99018508  0.81769895  0.31193535    -0.11900
C1899       C  0.01143146  0.81910886  0.31127225     0.02200
C1900       C  0.02323699  0.81220125  0.32792715    -0.00200
C1901       C  0.01312598  0.80539683  0.34544987    -0.11900
C1902       C  0.99189657  0.80412110  0.34616538     0.02100
H1903       H  0.98145725  0.82232768  0.29871498     0.15000
H1904       H  0.02186183  0.80035170  0.35851107     0.15000
C1905       C  0.98279816  0.79662555  0.36465549     0.36700
C1906       C  0.02054696  0.82708606  0.29298282     0.36600
N1907       N  0.97559989  0.79065332  0.37953993    -0.43700
N1908       N  0.02777325  0.83352420  0.27830635    -0.43700
C1909       C  0.81866138  0.64809761  0.38822772    -0.00100
C1910       C  0.83693627  0.63811891  0.38354607    -0.11900
C1911       C  0.83777734  0.62294181  0.36853979     0.02200
C1912       C  0.81992814  0.61716674  0.35796613    -0.00200
C1913       C  0.80154444  0.62664882  0.36316778    -0.11900
C1914       C  0.80073412  0.64195509  0.37799914     0.02100
H1915       H  0.85086346  0.64271244  0.39108853     0.15000
H1916       H  0.78769319  0.62240130  0.35528507     0.15000
C1917       C  0.78129291  0.65132084  0.38189845     0.36700
C1918       C  0.85739188  0.61441353  0.36373552     0.36600
N1919       N  0.76570017  0.65883965  0.38491622    -0.43700
N1920       N  0.87317786  0.60772115  0.35989842    -0.43700
C1921       C  0.86068370  0.73290913  0.38627370    -0.00100
C1922       C  0.87386672  0.74707320  0.39532956    -0.11900
C1923       C  0.88594716  0.75992229  0.38344111     0.02200
C1924       C  0.88512196  0.75858354  0.36198769    -0.00200
C1925       C  0.87233240  0.74404502  0.35296020    -0.11900
C1926       C  0.86025508  0.73121701  0.36481476     0.02100
H1927       H  0.87426328  0.74860294  0.41177127     0.15000
H1928       H  0.87181373  0.74261173  0.33651006     0.15000
C1929       C  0.84793196  0.71622013  0.35449283     0.36700
C1930       C  0.89814168  0.77504641  0.39367096     0.36600
N1931       N  0.83811059  0.70417276  0.34621961    -0.43700
N1932       N  0.90781667  0.78725325  0.40187292    -0.43700
C1933       C  0.75740921  0.91977388  0.27253125    -0.00100
C1934       C  0.73888823  0.92909577  0.27765557    -0.11900
C1935       C  0.72284627  0.93034058  0.26366543     0.02200
C1936       C  0.72498930  0.92185265  0.24396574    -0.00200
C1937       C  0.74363187  0.91288092  0.23871557    -0.11900
C1938       C  0.75974596  0.91182904  0.25264965     0.02100
H1939       H  0.73684777  0.93548500  0.29274810     0.15000
H1940       H  0.74562158  0.90638027  0.22366564     0.15000
C1941       C  0.77831659  0.90225381  0.24603995     0.36700
C1942       C  0.70450854  0.94051755  0.27010110     0.36600
N1943       N  0.79317257  0.89460127  0.24060960    -0.43700
N1944       N  0.68990708  0.94878007  0.27534135    -0.43700
C1945       C  0.85314432  0.87863250  0.31789617    -0.00100
C1946       C  0.86203605  0.87372380  0.33676519    -0.11900
C1947       C  0.87670149  0.85829271  0.33848513     0.02200
C1948       C  0.88279881  0.84721694  0.32102995    -0.00200
C1949       C  0.87461871  0.85279421  0.30205822    -0.11900
C1950       C  0.86005925  0.86825961  0.30032010     0.02100
H1951       H  0.85711665  0.88158974  0.35041459     0.15000
H1952       H  0.87927352  0.84471878  0.28843365     0.15000
C1953       C  0.85243691  0.87287795  0.28023180     0.36700
C1954       C  0.88493332  0.85408289  0.35843118     0.36600
N1955       N  0.84643500  0.87652814  0.26407548    -0.43700
N1956       N  0.89155618  0.85078254  0.37442306    -0.43700
C1957       C  0.74467613  0.77386578  0.42337934    -0.00100
C1958       C  0.76166584  0.77651279  0.43606073    -0.11900
C1959       C  0.77675234  0.76163427  0.43752574     0.02200
C1960       C  0.77519204  0.74358858  0.42591335    -0.00200
C1961       C  0.75785003  0.74058460  0.41377977    -0.11900
C1962       C  0.74261789  0.75540197  0.41248078     0.02100
H1963       H  0.76331026  0.79038107  0.44485982     0.15000
H1964       H  0.75629142  0.72670799  0.40497862     0.15000
C1965       C  0.72512410  0.75106773  0.39991011     0.36700
C1966       C  0.79337760  0.76528864  0.45141741     0.36600
N1967       N  0.71107954  0.74748772  0.38991306    -0.43700
N1968       N  0.80656753  0.76832356  0.46268266    -0.43700
C1969       C  0.65060285  0.81994118  0.38496684    -0.00100
C1970       C  0.64140935  0.83837412  0.37933318    -0.11900
C1971       C  0.62603983  0.83900358  0.36453675     0.02200
C1972       C  0.61923897  0.82081605  0.35525132    -0.00200
C1973       C  0.62755564  0.80228570  0.36180665    -0.11900
C1974       C  0.64307534  0.80165677  0.37640550     0.02100
H1975       H  0.64693888  0.85253264  0.38573963     0.15000
H1976       H  0.62238673  0.78817754  0.35498623     0.15000
C1977       C  0.65138828  0.78201658  0.38160600     0.36700
C1978       C  0.61874167  0.85868062  0.35816480     0.36600
N1979       N  0.65809648  0.76627776  0.38567322    -0.43700
N1980       N  0.61304131  0.87447329  0.35294751    -0.43700
C1981       C  0.74113139  0.85860232  0.38330420    -0.00100
C1982       C  0.75268024  0.84876813  0.36822899    -0.11900
C1983       C  0.76567991  0.85960953  0.35544020     0.02200
C1984       C  0.76731500  0.88091589  0.35746572    -0.00200
C1985       C  0.75608934  0.89077039  0.37274281    -0.11900
C1986       C  0.74305163  0.87989025  0.38557632     0.02100
H1987       H  0.75166211  0.83241483  0.36642494     0.15000
H1988       H  0.75716113  0.90713445  0.37442017     0.15000
C1989       C  0.73152997  0.89113305  0.40048629     0.36700
C1990       C  0.77746499  0.84832460  0.34072150     0.36600
N1991       N  0.72232448  0.90027252  0.41237561    -0.43700
N1992       N  0.78696205  0.83933564  0.32894439    -0.43700
C1993       C  0.68591987  0.47781540  0.17211844    -0.00100
C1994       C  0.69812893  0.48789058  0.15781763    -0.11900
C1995       C  0.70011171  0.50910494  0.15805532     0.02200
C1996       C  0.68955528  0.52073409  0.17279182    -0.00200
C1997       C  0.67581561  0.51077534  0.18569437    -0.11900
C1998       C  0.67389541  0.48958853  0.18548988     0.02100
H1999       H  0.70723277  0.47911798  0.14723063     0.15000
H2000       H  0.66716473  0.51948581  0.19670567     0.15000
C2001       C  0.66003427  0.48041379  0.19976473     0.36700
C2002       C  0.71414752  0.51818726  0.14388303     0.36600
N2003       N  0.64894577  0.47307744  0.21123683    -0.43700
N2004       N  0.72546580  0.52535296  0.13252443    -0.43700
C2005       C  0.73665064  0.38106648  0.14768276    -0.00100
C2006       C  0.74018547  0.36114666  0.15438188    -0.11900
C2007       C  0.75310773  0.34803956  0.14377287     0.02200
C2008       C  0.76308946  0.35484128  0.12598449    -0.00200
C2009       C  0.75967612  0.37486643  0.11934991    -0.11900
C2010       C  0.74666630  0.38797871  0.13000112     0.02100
H2011       H  0.73258575  0.35562506  0.16791880     0.15000
H2012       H  0.76728463  0.38039272  0.10582734     0.15000
C2013       C  0.74451291  0.40858990  0.12281326     0.36700
C2014       C  0.75538867  0.32761499  0.15145026     0.36600
N2015       N  0.74289666  0.42512765  0.11707376    -0.43700
N2016       N  0.75713532  0.31124867  0.15762392    -0.43700
C2017       C  0.98215429  0.32705613  0.19271925    -0.00100
C2018       C  0.99259017  0.34289703  0.20258393    -0.11900
C2019       C  0.01386715  0.34361169  0.20291272     0.02200
C2020       C  0.02529917  0.32808147  0.19333056    -0.00200
C2021       C  0.01485681  0.31326417  0.18197397    -0.11900
C2022       C  0.99356832  0.31267679  0.18147253     0.02100
H2023       H  0.98413057  0.35437751  0.21086263     0.15000
H2024       H  0.02332550  0.30154076  0.17405645     0.15000
C2025       C  0.98401517  0.29684425  0.16960425     0.36700
C2026       C  0.02338361  0.36019461  0.21374144     0.36600
N2027       N  0.97647358  0.28416435  0.15998254    -0.43700
N2028       N  0.03093248  0.37354883  0.22238952    -0.43700
C2029       C  0.88446325  0.31450765  0.15559645    -0.00100
C2030       C  0.88051867  0.33218366  0.14431818    -0.11900
C2031       C  0.86484294  0.33285097  0.12988653     0.02200
C2032       C  0.85274813  0.31542698  0.12630267    -0.00200
C2033       C  0.85755822  0.29738661  0.13663762    -0.11900
C2034       C  0.87309209  0.29676142  0.15120256     0.02100
H2035       H  0.88919032  0.34586979  0.14733233     0.15000
H2036       H  0.84862011  0.28380797  0.13393602     0.15000
C2037       C  0.87628900  0.27784287  0.16186102     0.36700
C2038       C  0.86128645  0.35186617  0.11955546     0.36600
N2039       N  0.87869697  0.26266708  0.17040826    -0.43700
N2040       N  0.85852238  0.36718619  0.11138731    -0.43700
C2041       C  0.76874241  0.42145461  0.26162947    -0.00100
C2042       C  0.77182079  0.43339676  0.24420888    -0.11900
C2043       C  0.75722557  0.43445551  0.22871884     0.02200
C2044       C  0.73890846  0.42336323  0.23045018    -0.00200
C2045       C  0.73540220  0.41223538  0.24832835    -0.11900
C2046       C  0.75001856  0.41115136  0.26380878     0.02100
H2047       H  0.78596376  0.44161575  0.24238178     0.15000
H2048       H  0.72137259  0.40379914  0.25002783     0.15000
C2049       C  0.74546606  0.39878837  0.28135097     0.36700
C2050       C  0.76188667  0.44664197  0.21107940     0.36600
N2051       N  0.74172893  0.38882777  0.29534837    -0.43700
N2052       N  0.76573455  0.45641013  0.19697651    -0.43700
C2053       C  0.82595748  0.47393270  0.32022129    -0.00100
C2054       C  0.84272846  0.48426014  0.31210302    -0.11900
C2055       C  0.84414527  0.50546997  0.31301702     0.02200
C2056       C  0.82822466  0.51696976  0.32177141    -0.00200
C2057       C  0.81250382  0.50653985  0.33173479    -0.11900
C2058       C  0.81142522  0.48523227  0.33135417     0.02100
H2059       H  0.85448791  0.47580861  0.30424238     0.15000
H2060       H  0.80056103  0.51505535  0.33923860     0.15000
C2061       C  0.79507095  0.47556091  0.34225167     0.36700
C2062       C  0.86184169  0.51487148  0.30417892     0.36600
N2063       N  0.78207117  0.46790473  0.35123262    -0.43700
N2064       N  0.87611428  0.52232242  0.29718557    -0.43700
C2065       C  0.85526182  0.37910316  0.26528581    -0.00100
C2066       C  0.87470909  0.38660951  0.26072137    -0.11900
C2067       C  0.88821973  0.37566215  0.24834448     0.02200
C2068       C  0.88253127  0.35648838  0.24040300    -0.00200
C2069       C  0.86304131  0.34904990  0.24487351    -0.11900
C2070       C  0.84944601  0.36007708  0.25701832     0.02100
H2071       H  0.87941495  0.40121799  0.26675964     0.15000
H2072       H  0.85831206  0.33443246  0.23886642     0.15000
C2073       C  0.82972519  0.35125540  0.26069308     0.36700
C2074       C  0.90776012  0.38459770  0.24414036     0.36600
N2075       N  0.81394423  0.34408528  0.26350173    -0.43700
N2076       N  0.92337693  0.39185656  0.24073009    -0.43700
C2077       C  0.52002535  0.30901284  0.18194142    -0.00100
C2078       C  0.51034516  0.29798023  0.16636116    -0.11900
C2079       C  0.48919245  0.29646105  0.16541989     0.02200
C2080       C  0.47714526  0.30621208  0.18031633    -0.00200
C2081       C  0.48673413  0.31846062  0.19500772    -0.11900
C2082       C  0.50793372  0.32010079  0.19583998     0.02100
H2083       H  0.51934376  0.28961102  0.15536467     0.15000
H2084       H  0.47765711  0.32639070  0.20626163     0.15000
C2085       C  0.51672206  0.33291851  0.21138864     0.36700
C2086       C  0.48052409  0.28358836  0.14982490     0.36600
N2087       N  0.52371896  0.34329612  0.22379641    -0.43700
N2088       N  0.47363635  0.27320509  0.13735894    -0.43700
C2089       C  0.61622316  0.35005288  0.18587250    -0.00100
C2090       C  0.62124280  0.36114114  0.20344485    -0.11900
C2091       C  0.63616007  0.37631291  0.20307984     0.02200
C2092       C  0.64645576  0.38078643  0.18471509    -0.00200
C2093       C  0.64072717  0.37031247  0.16692927    -0.11900
C2094       C  0.62593120  0.35501738  0.16734329     0.02100
H2095       H  0.61385063  0.35756600  0.21773627     0.15000
H2096       H  0.64847137  0.37343173  0.15272292     0.15000
C2097       C  0.62220835  0.34376122  0.14879821     0.36700
C2098       C  0.64083921  0.38649856  0.22200023     0.36600
N2099       N  0.61936804  0.33468513  0.13394997    -0.43700
N2100       N  0.64450318  0.39450408  0.23727562    -0.43700
C2101       C  0.75671980  0.27082573  0.08474253    -0.00100
C2102       C  0.75971484  0.25199817  0.09437899    -0.11900
C2103       C  0.74460305  0.23697332  0.09424057     0.02200
C2104       C  0.72589159  0.24063138  0.08426021    -0.00200
C2105       C  0.72321318  0.25915195  0.07402022    -0.11900
C2106       C  0.73824402  0.27416777  0.07419942     0.02100
H2107       H  0.77379940  0.24909946  0.10244518     0.15000
H2108       H  0.70903500  0.26219937  0.06616974     0.15000
C2109       C  0.73377719  0.29305549  0.06396595     0.36700
C2110       C  0.74863278  0.21827937  0.10499282     0.36600
N2111       N  0.73006907  0.30818355  0.05580926    -0.43700
N2112       N  0.75191206  0.20332524  0.11364180    -0.43700
C2113       C  0.64018471  0.23833179  0.12517790    -0.00100
C2114       C  0.64642380  0.24107952  0.14545341    -0.11900
C2115       C  0.63518429  0.25300510  0.15901406     0.02200
C2116       C  0.61706050  0.26249402  0.15240814    -0.00200
C2117       C  0.61103337  0.26008479  0.13198218    -0.11900
C2118       C  0.62243306  0.24829407  0.11835952     0.02100
H2119       H  0.66013066  0.23369547  0.15086798     0.15000
H2120       H  0.59741947  0.26759475  0.12651847     0.15000
C2121       C  0.61594727  0.24741096  0.09736123     0.36700
C2122       C  0.64270003  0.25499301  0.17959500     0.36600
N2123       N  0.61078845  0.24686915  0.08051342    -0.43700
N2124       N  0.64880846  0.25658176  0.19605607    -0.43700
C2125       C  0.57410275  0.22897785  0.27077759    -0.00100
C2126       C  0.59060999  0.24246638  0.27032439    -0.11900
C2127       C  0.59176277  0.25787013  0.25564437     0.02200
C2128       C  0.57628465  0.25978214  0.24082975    -0.00200
C2129       C  0.55917453  0.24713645  0.24214407    -0.11900
C2130       C  0.55778525  0.23209886  0.25713496     0.02100
H2131       H  0.60308507  0.24047604  0.28093721     0.15000
H2132       H  0.54684998  0.24893129  0.23131614     0.15000
C2133       C  0.53925845  0.22044419  0.25845330     0.36700
C2134       C  0.60955895  0.27064617  0.25549327     0.36600
N2135       N  0.52434931  0.21124452  0.25971493    -0.43700
N2136       N  0.62384983  0.28085950  0.25549327    -0.43700
C2137       C  0.47305848  0.16912677  0.31725641    -0.00100
C2138       C  0.48286854  0.18782061  0.32053727    -0.11900
C2139       C  0.50405894  0.18928224  0.32079550     0.02200
C2140       C  0.51605334  0.17171727  0.31777151    -0.00200
C2141       C  0.50632164  0.15290386  0.31519082    -0.11900
C2142       C  0.48506616  0.15142558  0.31507550     0.02100
H2143       H  0.47396524  0.20159633  0.32214533     0.15000
H2144       H  0.51536455  0.13929820  0.31301429     0.15000
C2145       C  0.47612028  0.13155298  0.31265360     0.36700
C2146       C  0.51294704  0.20925359  0.32285294     0.36600
N2147       N  0.46900578  0.11557986  0.31081083    -0.43700
N2148       N  0.52005290  0.22525897  0.32444903    -0.43700
C2149       C  0.67025700  0.97953580  0.19033775    -0.00100
C2150       C  0.65278836  0.98949124  0.19757332    -0.11900
C2151       C  0.65169313  0.01077757  0.19841098     0.02200
C2152       C  0.66845654  0.02261070  0.19212629    -0.00200
C2153       C  0.68526967  0.01269241  0.18354256    -0.11900
C2154       C  0.68629551  0.99147120  0.18249721     0.02100
H2155       H  0.64013213  0.98063371  0.20323097     0.15000
H2156       H  0.69811454  0.02152024  0.17827080     0.15000
C2157       C  0.70433745  0.98255356  0.17380150     0.36700
C2158       C  0.63325103  0.01995407  0.20593866     0.36600
N2159       N  0.71881792  0.97550669  0.16676973    -0.43700
N2160       N  0.61843424  0.02733092  0.21184724    -0.43700
C2161       C  0.67339043  0.11814792  0.15269004    -0.00100
C2162       C  0.69192684  0.12368087  0.14372450    -0.11900
C2163       C  0.69287552  0.13875434  0.12872860     0.02200
C2164       C  0.67496001  0.14873642  0.12231594    -0.00200
C2165       C  0.65625627  0.14206383  0.13003863    -0.11900
C2166       C  0.65529436  0.12700150  0.14509952     0.02100
H2167       H  0.70591969  0.11672079  0.14894934     0.15000
H2168       H  0.64234293  0.14935835  0.12506375     0.15000
C2169       C  0.63557172  0.12183001  0.15309497     0.36700
C2170       C  0.71253068  0.14382872  0.12048511     0.36600
N2171       N  0.61972351  0.11778454  0.15947139    -0.43700
N2172       N  0.72827855  0.14789742  0.11387956    -0.43700
C2173       C  0.63752912  0.11827125  0.24302060    -0.00100
C2174       C  0.64180453  0.13902969  0.24539532    -0.11900
C2175       C  0.63016133  0.15136766  0.25824738     0.02200
C2176       C  0.61367873  0.14296340  0.26919210    -0.00200
C2177       C  0.60944341  0.12215209  0.26684927    -0.11900
C2178       C  0.62118046  0.10979998  0.25402527     0.02100
H2179       H  0.65431594  0.14574755  0.23707648     0.15000
H2180       H  0.59702100  0.11538739  0.27525115     0.15000
C2181       C  0.61652727  0.08837604  0.25312075     0.36700
C2182       C  0.63557512  0.17259074  0.25967097     0.36600
N2183       N  0.61287624  0.07118740  0.25245891    -0.43700
N2184       N  0.63998344  0.18957926  0.26077502    -0.43700
C2185       C  0.75588143  0.08018445  0.27483599    -0.00100
C2186       C  0.74058993  0.06535836  0.27570056    -0.11900
C2187       C  0.72478918  0.06489289  0.26144419     0.02200
C2188       C  0.72389419  0.07966880  0.24585458    -0.00200
C2189       C  0.73953135  0.09412119  0.24458191    -0.11900
C2190       C  0.75540508  0.09453930  0.25883836     0.02100
H2191       H  0.74087775  0.05404668  0.28768622     0.15000
H2192       H  0.73910954  0.10552071  0.23268841     0.15000
C2193       C  0.77047175  0.11034708  0.25698785     0.36700
C2194       C  0.70996181  0.04883590  0.26316581     0.36600
N2195       N  0.78249390  0.12306093  0.25543644    -0.43700
N2196       N  0.69819935  0.03586963  0.26462061    -0.43700
C2197       C  0.81020967  0.02053865  0.32725379    -0.00100
C2198       C  0.82050325  0.01088021  0.31119202    -0.11900
C2199       C  0.82160586  0.98963877  0.30983788     0.02200
C2200       C  0.81239899  0.97743246  0.32490951    -0.00200
C2201       C  0.80308410  0.98710016  0.34156837    -0.11900
C2202       C  0.80180112  0.00833722  0.34283730     0.02100
H2203       H  0.82720051  0.01994469  0.29918729     0.15000
H2204       H  0.79594319  0.97802612  0.35330919     0.15000
C2205       C  0.79090284  0.01695217  0.35985671     0.36700
C2206       C  0.83184803  0.98092685  0.29248610     0.36600
N2207       N  0.78208916  0.02376559  0.37348414    -0.43700
N2208       N  0.84002798  0.97398655  0.27853326    -0.43700
C2209       C  0.64303576  0.17233170  0.39048766    -0.00100
C2210       C  0.63246043  0.19057041  0.38715917    -0.11900
C2211       C  0.61684021  0.19179796  0.37271155     0.02200
C2212       C  0.61163964  0.17452678  0.36096028    -0.00200
C2213       C  0.62119968  0.15593671  0.36534633    -0.11900
C2214       C  0.63673547  0.15467177  0.37991233     0.02100
H2215       H  0.63678514  0.20414842  0.39549396     0.15000
H2216       H  0.61725249  0.14247179  0.35665171     0.15000
C2217       C  0.64668715  0.13530865  0.38264631     0.36700
C2218       C  0.60670137  0.21108701  0.37016305     0.36600
N2219       N  0.65463961  0.11977194  0.38478755    -0.43700
N2220       N  0.59856544  0.22655381  0.36822011    -0.43700
C2221       C  0.73326114  0.13754863  0.38650206    -0.00100
C2222       C  0.73657614  0.14393454  0.36638734    -0.11900
C2223       C  0.74936750  0.13313439  0.35326275     0.02200
C2224       C  0.75974747  0.11565864  0.36031046    -0.00200
C2225       C  0.75620130  0.10904756  0.38033100    -0.11900
C2226       C  0.74298381  0.11962436  0.39333034     0.02100
H2227       H  0.72894866  0.15740185  0.36072350     0.15000
H2228       H  0.76375123  0.09550017  0.38589606     0.15000
C2229       C  0.73980022  0.11165033  0.41352787     0.36700
C2230       C  0.75092428  0.14011331  0.33248322     0.36600
N2231       N  0.73718085  0.10512404  0.42965618    -0.43700
N2232       N  0.75203469  0.14558977  0.31578957    -0.43700
C2233       C  0.92431951  0.24118698  0.27850334    -0.00100
C2234       C  0.93373954  0.25980610  0.28307090    -0.11900
C2235       C  0.93497969  0.27533936  0.26861966     0.02200
C2236       C  0.92657083  0.27246429  0.24899633    -0.00200
C2237       C  0.91800845  0.25350484  0.24412150    -0.11900
C2238       C  0.91688016  0.23791733  0.25855016     0.02100
H2239       H  0.93984023  0.26247746  0.29819176     0.15000
H2240       H  0.91174040  0.25092086  0.22905417     0.15000
C2241       C  0.90790058  0.21886675  0.25234299     0.36700
C2242       C  0.94483275  0.29403585  0.27457212     0.36600
N2243       N  0.90077387  0.20359112  0.24729418    -0.43700
N2244       N  0.95276746  0.30897722  0.27940432    -0.43700
C2245       C  0.97627431  0.18816877  0.33711334    -0.00100
C2246       C  0.98656711  0.20204782  0.34969317    -0.11900
C2247       C  0.00778411  0.20290217  0.35009802     0.02200
C2248       C  0.01927280  0.18942918  0.33783938    -0.00200
C2249       C  0.00897932  0.17433576  0.32670850    -0.11900
C2250       C  0.98771554  0.17363364  0.32617265     0.02100
H2251       H  0.97802698  0.21315371  0.35839607     0.15000
H2252       H  0.01753062  0.16358738  0.31758606     0.15000
C2253       C  0.97816337  0.15821976  0.31376388     0.36700
C2254       C  0.01709204  0.21860742  0.36235209     0.36600
N2255       N  0.97055633  0.14586351  0.30377835    -0.43700
N2256       N  0.02445214  0.23128206  0.37212383    -0.43700
C2257       C  0.87991084  0.14868534  0.32315298    -0.00100
C2258       C  0.87299709  0.14042260  0.34158167    -0.11900
C2259       C  0.85810777  0.12523726  0.34194703     0.02200
C2260       C  0.84983841  0.11773471  0.32349588    -0.00200
C2261       C  0.85752299  0.12524940  0.30502791    -0.11900
C2262       C  0.87231132  0.14057015  0.30466950     0.02100
H2263       H  0.87867754  0.14638213  0.35590796     0.15000
H2264       H  0.85148787  0.11960888  0.29071835     0.15000
C2265       C  0.87888173  0.14795760  0.28506933     0.36700
C2266       C  0.85101480  0.11848238  0.36158197     0.36600
N2267       N  0.88409954  0.15390827  0.26936068    -0.43700
N2268       N  0.84528059  0.11315744  0.37733207    -0.43700
C2269       C  0.76576760  0.25439099  0.42648249    -0.00100
C2270       C  0.75042915  0.25447393  0.41162503    -0.11900
C2271       C  0.73570781  0.23916084  0.41095930     0.02200
C2272       C  0.73606637  0.22339848  0.42555738    -0.00200
C2273       C  0.75096290  0.22379316  0.44089356    -0.11900
C2274       C  0.76568367  0.23909594  0.44152857     0.02100
H2275       H  0.75038052  0.26612615  0.39996860     0.15000
H2276       H  0.75120541  0.21201587  0.45241964     0.15000
C2277       C  0.78023151  0.23890162  0.45801488     0.36700
C2278       C  0.72116695  0.23954623  0.39448196     0.36600
N2279       N  0.79181380  0.23878298  0.47128853    -0.43700
N2280       N  0.70958994  0.23988168  0.38120896    -0.43700
C2281       C  0.81187073  0.34677885  0.38353591    -0.00100
C2282       C  0.83077041  0.35486973  0.37792477    -0.11900
C2283       C  0.83240864  0.36949039  0.36259956     0.02200
C2284       C  0.81476188  0.37666200  0.35263793    -0.00200
C2285       C  0.79577089  0.36917811  0.35880932    -0.11900
C2286       C  0.79415424  0.35431981  0.37394970     0.02100
H2287       H  0.84453254  0.34923000  0.38503422     0.15000
H2288       H  0.78206306  0.37453379  0.35137797     0.15000
C2289       C  0.77413412  0.34680771  0.37872952     0.36700
C2290       C  0.85252933  0.37609707  0.35700739     0.36600
N2291       N  0.75802418  0.34084619  0.38236418    -0.43700
N2292       N  0.86870925  0.38124542  0.35254966    -0.43700
C2293       C  0.85095617  0.26136352  0.38408369    -0.00100
C2294       C  0.86905085  0.25419166  0.39285490    -0.11900
C2295       C  0.88245516  0.24185092  0.38189299     0.02200
C2296       C  0.87798541  0.23656997  0.36149097    -0.00200
C2297       C  0.86002737  0.24399516  0.35261900    -0.11900
C2298       C  0.84650866  0.25615662  0.36365117     0.02100
H2299       H  0.87269974  0.25803075  0.40850834     0.15000
H2300       H  0.85636848  0.24014159  0.33697229     0.15000
C2301       C  0.82830505  0.26299064  0.35345008     0.36700
C2302       C  0.90061976  0.23497169  0.39210894     0.36600
N2303       N  0.81373241  0.26834625  0.34517406    -0.43700
N2304       N  0.91512290  0.22947459  0.40040964    -0.43700
C2305       C  0.14145118  0.61873994  0.74154340    -0.00100
C2306       C  0.14857042  0.63812654  0.74698778    -0.11900
C2307       C  0.13784906  0.65056639  0.76051375     0.02200
C2308       C  0.11947551  0.64363836  0.76920278    -0.00200
C2309       C  0.11218150  0.62434550  0.76355151    -0.11900
C2310       C  0.12283496  0.61197563  0.74980615     0.02100
H2311       H  0.16275256  0.64365503  0.74073806     0.15000
H2312       H  0.09798774  0.61887501  0.76981703     0.15000
C2313       C  0.11418687  0.59249851  0.74455220     0.36700
C2314       C  0.14628976  0.67030684  0.76509054     0.36600
N2315       N  0.10716757  0.57693328  0.74031158    -0.43700
N2316       N  0.15313218  0.68612287  0.76861908    -0.43700
C2317       C  0.07749001  0.75964363  0.73917591    -0.00100
C2318       C  0.09077487  0.76173766  0.75581264    -0.11900
C2319       C  0.09188452  0.74684405  0.77101582     0.02200
C2320       C  0.07937051  0.72940510  0.76978088    -0.00200
C2321       C  0.06524454  0.72800096  0.75378340    -0.11900
C2322       C  0.06414691  0.74284639  0.73863265     0.02100
H2323       H  0.10095520  0.77466427  0.75655353     0.15000
H2324       H  0.05518255  0.71499457  0.75282227     0.15000
C2325       C  0.04912050  0.74032297  0.72278193     0.36700
C2326       C  0.10654201  0.74964593  0.78715335     0.36600
N2327       N  0.03701849  0.73824104  0.71015176    -0.43700
N2328       N  0.11834974  0.75201696  0.80001275    -0.43700
C2329       C  0.16968534  0.69093714  0.52761608    -0.00100
C2330       C  0.18434160  0.67929986  0.51735577    -0.11900
C2331       C  0.18482393  0.67833655  0.49607878     0.02200
C2332       C  0.17053517  0.68936981  0.48444330    -0.00200
C2333       C  0.15492419  0.69977362  0.49465058    -0.11900
C2334       C  0.15431697  0.70059731  0.51601515     0.02100
H2335       H  0.19592311  0.67131998  0.52595715     0.15000
H2336       H  0.14361602  0.70802336  0.48593557     0.15000
C2337       C  0.13801414  0.71184233  0.52546274     0.36700
C2338       C  0.20020474  0.66585172  0.48666355     0.36600
N2339       N  0.12489776  0.72078066  0.53302797    -0.43700
N2340       N  0.21247057  0.65574920  0.47914260    -0.43700
C2341       C  0.17978611  0.64919504  0.62379762    -0.00100
C2342       C  0.19843139  0.64257882  0.63184906    -0.11900
C2343       C  0.19931055  0.62753771  0.64689072     0.02200
C2344       C  0.18119361  0.61870907  0.65427492    -0.00200
C2345       C  0.16266233  0.62443970  0.64535132    -0.11900
C2346       C  0.16177957  0.63946722  0.63029247     0.02100
H2347       H  0.21243276  0.64960382  0.62682210     0.15000
H2348       H  0.14863384  0.61769909  0.65068087     0.15000
C2349       C  0.14205625  0.64498593  0.62241979     0.36700
C2350       C  0.21904344  0.62177365  0.65457401     0.36600
N2351       N  0.12624570  0.64939668  0.61610883    -0.43700
N2352       N  0.23487873  0.61718338  0.66069225    -0.43700
C2353       C  0.14216987  0.73641464  0.62743680    -0.00100
C2354       C  0.15097475  0.74487658  0.64502803    -0.11900
C2355       C  0.13981848  0.75740711  0.65814303     0.02200
C2356       C  0.11928123  0.76193142  0.65370232    -0.00200
C2357       C  0.11041073  0.75330543  0.63623199    -0.11900
C2358       C  0.12151779  0.74060362  0.62322101     0.02100
H2359       H  0.16675857  0.74178168  0.64858417     0.15000
H2360       H  0.09462666  0.75642276  0.63269645     0.15000
C2361       C  0.11117944  0.73217435  0.60573416     0.36700
C2362       C  0.15005872  0.76548666  0.67586005     0.36600
N2363       N  0.10282085  0.72540865  0.59176618    -0.43700
N2364       N  0.15831671  0.77188598  0.69006027    -0.43700
C2365       C  0.18760578  0.67335477  0.98728005    -0.00100
C2366       C  0.19265604  0.65534122  0.99756600    -0.11900
C2367       C  0.19254094  0.65439797  0.01888801     0.02200
C2368       C  0.18770822  0.67191735  0.03042252    -0.00200
C2369       C  0.18109641  0.68939834  0.02011602    -0.11900
C2370       C  0.18070084  0.69017951  0.99881944     0.02100
H2371       H  0.19743487  0.64209883  0.98896918     0.15000
H2372       H  0.17667993  0.70277246  0.02871240     0.15000
C2373       C  0.17323160  0.70853638  0.98939007     0.36700
C2374       C  0.19806297  0.63541479  0.02838966     0.36600
N2375       N  0.16705754  0.72320634  0.98191181    -0.43700
N2376       N  0.20235838  0.62018575  0.03605554    -0.43700
C2377       C  0.14838762  0.68029100  0.89264395    -0.00100
C2378       C  0.13929747  0.66184440  0.88689878    -0.11900
C2379       C  0.12412617  0.66116186  0.87191413     0.02200
C2380       C  0.11792112  0.67923790  0.86205849    -0.00200
C2381       C  0.12579139  0.69784347  0.86906727    -0.11900
C2382       C  0.14069982  0.69855741  0.88429864     0.02100
H2383       H  0.14458655  0.64773192  0.89355979     0.15000
H2384       H  0.12076342  0.71194469  0.86218243     0.15000
C2385       C  0.14790147  0.71827234  0.89079008     0.36700
C2386       C  0.11567760  0.64159028  0.86673530     0.36600
N2387       N  0.15356740  0.73407820  0.89606577    -0.43700
N2388       N  0.10889278  0.62586171  0.86273754    -0.43700
C2389       C  0.25586372  0.57817102  0.77944352    -0.00100
C2390       C  0.23539438  0.57819019  0.78531998    -0.11900
C2391       C  0.21978165  0.57822549  0.77089587     0.02200
C2392       C  0.22449247  0.57842658  0.74989060    -0.00200
C2393       C  0.24497461  0.57813799  0.74397101    -0.11900
C2394       C  0.26061889  0.57780626  0.75847493     0.02100
H2395       H  0.23148364  0.57845255  0.80135383     0.15000
H2396       H  0.24881395  0.57797302  0.72792297     0.15000
C2397       C  0.28127745  0.57638503  0.75133483     0.36700
C2398       C  0.19915362  0.57852293  0.77831120     0.36600
N2399       N  0.29779698  0.57506692  0.74552763    -0.43700
N2400       N  0.18268190  0.57868920  0.78439506    -0.43700
C2401       C  0.26528036  0.61746874  0.86587842    -0.00100
C2402       C  0.25792522  0.63608445  0.85853248    -0.11900
C2403       C  0.24498054  0.64827518  0.87017304     0.02200
C2404       C  0.23897400  0.64196311  0.88986788    -0.00200
C2405       C  0.24671462  0.62355657  0.89746671    -0.11900
C2406       C  0.25966620  0.61129599  0.88572431     0.02100
H2407       H  0.26215415  0.64116304  0.84342409     0.15000
H2408       H  0.24243651  0.61854513  0.91257856     0.15000
C2409       C  0.26648681  0.59231603  0.89435569     0.36700
C2410       C  0.23830144  0.66720259  0.86130044     0.36600
N2411       N  0.27188249  0.57708645  0.90129583    -0.43700
N2412       N  0.23303363  0.68233176  0.85405276    -0.43700
C2413       C  0.14935084  0.88168233  0.68650117    -0.00100
C2414       C  0.14275361  0.87465635  0.70555624    -0.11900
C2415       C  0.12761391  0.85983927  0.70717047     0.02200
C2416       C  0.11867050  0.85157758  0.68939043    -0.00200
C2417       C  0.12415767  0.85969269  0.67040698    -0.11900
C2418       C  0.13928071  0.87459678  0.66879695     0.02100
H2419       H  0.14994137  0.88023232  0.71934672     0.15000
H2420       H  0.11716289  0.85384243  0.65663025     0.15000
C2421       C  0.14428077  0.88193742  0.64872697     0.36700
C2422       C  0.12193736  0.85323941  0.72732486     0.36600
N2423       N  0.14814000  0.88777557  0.63258550    -0.43700
N2424       N  0.11740334  0.84799313  0.74349281    -0.43700
C2425       C  0.25733450  0.77246549  0.58143660    -0.00100
C2426       C  0.26191960  0.75304019  0.58899956    -0.11900
C2427       C  0.24709540  0.73781341  0.58987790     0.02200
C2428       C  0.22706859  0.74201109  0.58328087    -0.00200
C2429       C  0.22280139  0.76115665  0.57487240    -0.11900
C2430       C  0.23766990  0.77622522  0.57369251     0.02100
H2431       H  0.27704849  0.74982144  0.59469005     0.15000
H2432       H  0.20767239  0.76451185  0.56926516     0.15000
C2433       C  0.23227970  0.79521749  0.56410888     0.36700
C2434       C  0.25299789  0.71817209  0.59766368     0.36600
N2435       N  0.22796724  0.81036091  0.55628460    -0.43700
N2436       N  0.25786108  0.70242965  0.60380363    -0.43700
C2437       C  0.31303953  0.82590220  0.52646761    -0.00100
C2438       C  0.32014868  0.80888151  0.51565359    -0.11900
C2439       C  0.31956721  0.80813032  0.49433649     0.02200
C2440       C  0.31196531  0.82486084  0.48315390    -0.00200
C2441       C  0.30620762  0.84245158  0.49388919    -0.11900
C2442       C  0.30665162  0.84313825  0.51526767     0.02100
H2443       H  0.32527667  0.79557112  0.52390761     0.15000
H2444       H  0.30056279  0.85552293  0.48558748     0.15000
C2445       C  0.29951570  0.86141785  0.52511849     0.36700
C2446       C  0.32558935  0.78937654  0.48461628     0.36600
N2447       N  0.29373882  0.87612723  0.53286990    -0.43700
N2448       N  0.33028703  0.77426573  0.47690621    -0.43700
C2449       C  0.26638587  0.85733017  0.62427730    -0.00100
C2450       C  0.25397690  0.87200756  0.61500855    -0.11900
C2451       C  0.24082895  0.88423191  0.62652202     0.02200
C2452       C  0.24001727  0.88199790  0.64792928    -0.00200
C2453       C  0.25281745  0.86765670  0.65720654    -0.11900
C2454       C  0.26590088  0.85543149  0.64571662     0.02100
H2455       H  0.25412616  0.87359392  0.59851013     0.15000
H2456       H  0.25266490  0.86595324  0.67367672     0.15000
C2457       C  0.27889621  0.84138194  0.65648017     0.36700
C2458       C  0.22791680  0.89837962  0.61581945     0.36600
N2459       N  0.28930298  0.83017307  0.66517076    -0.43700
N2460       N  0.21753442  0.90967866  0.60721936    -0.43700
C2461       C  0.27161676  0.92211174  0.76580934    -0.00100
C2462       C  0.27354674  0.93523946  0.74910956    -0.11900
C2463       C  0.25918827  0.93540168  0.73338311     0.02200
C2464       C  0.24230149  0.92211993  0.73408588    -0.00200
C2465       C  0.23997304  0.90951214  0.75117199    -0.11900
C2466       C  0.25438123  0.90935643  0.76691743     0.02100
H2467       H  0.28657396  0.94525904  0.74811202     0.15000
H2468       H  0.22710137  0.89928924  0.75202691     0.15000
C2469       C  0.25144858  0.89527484  0.78348106     0.36700
C2470       C  0.26254885  0.94916034  0.71662388     0.36600
N2471       N  0.24913664  0.88394824  0.79672652    -0.43700
N2472       N  0.26527782  0.96017516  0.70319518    -0.43700
C2473       C  0.37853902  0.81435655  0.65901479    -0.00100
C2474       C  0.36834141  0.79620892  0.65416177    -0.11900
C2475       C  0.35390064  0.79541722  0.63845624     0.02200
C2476       C  0.34957542  0.81305685  0.62691532    -0.00200
C2477       C  0.36037488  0.83094093  0.63122426    -0.11900
C2478       C  0.37455174  0.83181925  0.64712127     0.02100
H2479       H  0.37120428  0.78263862  0.66306242     0.15000
H2480       H  0.35720332  0.84462565  0.62260894     0.15000
C2481       C  0.38433757  0.85105913  0.65100238     0.36700
C2482       C  0.34368669  0.77632195  0.63484215     0.36600
N2483       N  0.39204984  0.86656603  0.65404848    -0.43700
N2484       N  0.33556997  0.76096010  0.63210407    -0.43700
C2485       C  0.35563081  0.87987951  0.77186266    -0.00100
C2486       C  0.34593255  0.86712377  0.75765294    -0.11900
C2487       C  0.35707595  0.85399338  0.74512192     0.02200
C2488       C  0.37845645  0.85340585  0.74670824    -0.00200
C2489       C  0.38814051  0.86600553  0.76099603    -0.11900
C2490       C  0.37699272  0.87902703  0.77362667     0.02100
H2491       H  0.32954971  0.86762289  0.75605698     0.15000
H2492       H  0.40452731  0.86545001  0.76254995     0.15000
C2493       C  0.38789630  0.89077163  0.78866419     0.36700
C2494       C  0.34619209  0.84201036  0.73022185     0.36600
N2495       N  0.39665757  0.90009508  0.80077887    -0.43700
N2496       N  0.33741288  0.83251195  0.71825075    -0.43700
C2497       C  0.27443327  0.75536616  0.92492714    -0.00100
C2498       C  0.27895100  0.73665087  0.93410827    -0.11900
C2499       C  0.26444509  0.72126315  0.93550878     0.02200
C2500       C  0.24475730  0.72432794  0.92744159    -0.00200
C2501       C  0.24012820  0.74312599  0.91842156    -0.11900
C2502       C  0.25465649  0.75861124  0.91715564     0.02100
H2503       H  0.29400536  0.73390048  0.94023274     0.15000
H2504       H  0.22509048  0.74576061  0.91220883     0.15000
C2505       C  0.24869018  0.77755747  0.90784043     0.36700
C2506       C  0.27043850  0.70255448  0.94529239     0.36600
N2507       N  0.24379963  0.79272702  0.90041257    -0.43700
N2508       N  0.27530465  0.68761835  0.95319256    -0.43700
C2509       C  0.32410863  0.80823565  0.98312813    -0.00100
C2510       C  0.34274949  0.80886318  0.99352653    -0.11900
C2511       C  0.34351174  0.80852057  0.01486217     0.02200
C2512       C  0.32530935  0.80737661  0.02616430    -0.00200
C2513       C  0.30669729  0.80765647  0.01573181    -0.11900
C2514       C  0.30591505  0.80789733  0.99449688     0.02100
H2515       H  0.35679358  0.80923616  0.98495507     0.15000
H2516       H  0.29259176  0.80664707  0.02415357     0.15000
C2517       C  0.28621968  0.80610621  0.98492920     0.36700
C2518       C  0.36314658  0.80922147  0.02464536     0.36600
N2519       N  0.27045834  0.80451656  0.97727649    -0.43700
N2520       N  0.37887893  0.80983503  0.03249588    -0.43700
C2521       C  0.32061150  0.85021873  0.88728387    -0.00100
C2522       C  0.30228165  0.85509352  0.87750673    -0.11900
C2523       C  0.30125522  0.87034537  0.86278889     0.02200
C2524       C  0.31886051  0.88152089  0.85768815    -0.00200
C2525       C  0.33704567  0.87730185  0.86813043    -0.11900
C2526       C  0.33809266  0.86183064  0.88277894     0.02100
H2527       H  0.28870133  0.84638051  0.88075336     0.15000
H2528       H  0.35068387  0.88573735  0.86444977     0.15000
C2529       C  0.35741258  0.85795539  0.89245088     0.36700
C2530       C  0.28209961  0.87316325  0.85243453     0.36600
N2531       N  0.37290091  0.85484350  0.90019246    -0.43700
N2532       N  0.26674385  0.87524092  0.84410653    -0.43700
C2533       C  0.42442307  0.73841282  0.78376559    -0.00100
C2534       C  0.41579287  0.73377021  0.76474465    -0.11900
C2535       C  0.41437242  0.74838149  0.74935215     0.02200
C2536       C  0.42146014  0.76836773  0.75289639    -0.00200
C2537       C  0.43087984  0.77276915  0.77162420    -0.11900
C2538       C  0.43259640  0.75805291  0.78690991     0.02100
H2539       H  0.40979788  0.71868046  0.76190901     0.15000
H2540       H  0.43680716  0.78788081  0.77448171     0.15000
C2541       C  0.44290752  0.76366552  0.80552371     0.36700
C2542       C  0.40556431  0.74224222  0.73016033     0.36600
N2543       N  0.45130605  0.76819163  0.82035037    -0.43700
N2544       N  0.39858108  0.73717118  0.71478750    -0.43700
C2545       C  0.38359940  0.64403810  0.82693046    -0.00100
C2546       C  0.37477215  0.63906990  0.80804497    -0.11900
C2547       C  0.35894820  0.62492178  0.80654746     0.02200
C2548       C  0.35163740  0.61521624  0.82428053    -0.00200
C2549       C  0.36133772  0.61922460  0.84293654    -0.11900
C2550       C  0.37706165  0.63346513  0.84445235     0.02100
H2551       H  0.37976247  0.64679616  0.79437361     0.15000
H2552       H  0.35608172  0.61179949  0.85667354     0.15000
C2553       C  0.38537575  0.63745240  0.86441275     0.36700
C2554       C  0.35032010  0.62120074  0.78664793     0.36600
N2555       N  0.39186808  0.64053472  0.88051020    -0.43700
N2556       N  0.34352550  0.61836922  0.77062522    -0.43700
C2557       C  0.38375882  0.73222258  0.86589801    -0.00100
C2558       C  0.36392369  0.73624366  0.85907102    -0.11900
C2559       C  0.35129302  0.74995384  0.86931133     0.02200
C2560       C  0.35838861  0.75999114  0.88703185    -0.00200
C2561       C  0.37818905  0.75594268  0.89390454    -0.11900
C2562       C  0.39088012  0.74233262  0.88353579     0.02100
H2563       H  0.35820204  0.72870509  0.84552616     0.15000
H2564       H  0.38389908  0.76354650  0.90741425     0.15000
C2565       C  0.41126576  0.73958236  0.89112427     0.36700
C2566       C  0.33115512  0.75323719  0.86118044     0.36600
N2567       N  0.42762247  0.73749742  0.89722770    -0.43700
N2568       N  0.31504708  0.75589394  0.85463207    -0.43700
C2569       C  0.97982953  0.67241073  0.81740511    -0.00100
C2570       C  0.99035918  0.65702065  0.80697080    -0.11900
C2571       C  0.01161697  0.65614548  0.80708772     0.02200
C2572       C  0.02294631  0.67097011  0.81787632    -0.00200
C2573       C  0.01237001  0.68551715  0.82943049    -0.11900
C2574       C  0.99109714  0.68636228  0.82931995     0.02100
H2575       H  0.98199364  0.64602349  0.79794173     0.15000
H2576       H  0.02074880  0.69679303  0.83808929     0.15000
C2577       C  0.98139789  0.70196745  0.84133402     0.36700
C2578       C  0.02119364  0.64024645  0.79534019     0.36600
N2579       N  0.97371135  0.71448724  0.85102518    -0.43700
N2580       N  0.02874390  0.62745262  0.78589876    -0.43700
C2581       C  0.86138689  0.61621852  0.74015135    -0.00100
C2582       C  0.85187749  0.63158785  0.75156226    -0.11900
C2583       C  0.86296024  0.64424647  0.76461680     0.02200
C2584       C  0.88420548  0.64186372  0.76639851    -0.00200
C2585       C  0.89376634  0.62640023  0.75516762    -0.11900
C2586       C  0.88263579  0.61365133  0.74211084     0.02100
H2587       H  0.83557377  0.63363803  0.75050228     0.15000
H2588       H  0.91006722  0.62441268  0.75638117     0.15000
C2589       C  0.89353728  0.59833680  0.73077576     0.36700
C2590       C  0.85191749  0.65898131  0.77659160     0.36600
N2591       N  0.90229284  0.58606872  0.72169292    -0.43700
N2592       N  0.84306547  0.67070775  0.78627564    -0.43700
C2593       C  0.81016076  0.67199164  0.98267837    -0.00100
C2594       C  0.82176198  0.68665102  0.99305083    -0.11900
C2595       C  0.82294495  0.68701484  0.01436851     0.02200
C2596       C  0.81243179  0.67232531  0.02600374    -0.00200
C2597       C  0.80186527  0.65688811  0.01559218    -0.11900
C2598       C  0.80059418  0.65659143  0.99423729     0.02100
H2599       H  0.82942212  0.69844738  0.98450378     0.15000
H2600       H  0.79387925  0.64534044  0.02417894     0.15000
C2601       C  0.78893241  0.64053329  0.98482382     0.36700
C2602       C  0.83466308  0.70307414  0.02368276     0.36600
N2603       N  0.77955034  0.62758998  0.97745099    -0.43700
N2604       N  0.84409365  0.71604628  0.03093267    -0.43700
C2605       C  0.85169492  0.68104804  0.88586315    -0.00100
C2606       C  0.85788526  0.66228016  0.87768412    -0.11900
C2607       C  0.87294553  0.66108678  0.86264431     0.02200
C2608       C  0.88243384  0.67900311  0.85550070    -0.00200
C2609       C  0.87704787  0.69763623  0.86451044    -0.11900
C2610       C  0.86190421  0.69883731  0.87946053     0.02100
H2611       H  0.85033541  0.64844491  0.88243319     0.15000
H2612       H  0.88430861  0.71151663  0.85945113     0.15000
C2613       C  0.85702507  0.71865066  0.88756338     0.36700
C2614       C  0.87747144  0.64131628  0.85421994     0.36600
N2615       N  0.85322079  0.73460515  0.89394677    -0.43700
N2616       N  0.88095911  0.62542469  0.84750146    -0.43700
C2617       C  0.74411164  0.57509646  0.77135413    -0.00100
C2618       C  0.76023530  0.56127136  0.77308488    -0.11900
C2619       C  0.77570528  0.56059030  0.75857173     0.02200
C2620       C  0.77553464  0.57434270  0.74207534    -0.00200
C2621       C  0.75875764  0.58732724  0.73964627    -0.11900
C2622       C  0.74299678  0.58766705  0.75394183     0.02100
H2623       H  0.76091263  0.55105443  0.78600886     0.15000
H2624       H  0.75818353  0.59767699  0.72682904     0.15000
C2625       C  0.72632231  0.60154486  0.75061747     0.36700
C2626       C  0.79139133  0.54544823  0.76097552     0.36600
N2627       N  0.71289884  0.61256325  0.74786300    -0.43700
N2628       N  0.80388857  0.53322329  0.76282033    -0.43700
C2629       C  0.73914499  0.61897662  0.85862266    -0.00100
C2630       C  0.74309495  0.63903468  0.85248771    -0.11900
C2631       C  0.75487032  0.65219397  0.86449646     0.02200
C2632       C  0.76304982  0.64536100  0.88324044    -0.00200
C2633       C  0.75909281  0.62529634  0.88933406    -0.11900
C2634       C  0.74739986  0.61213436  0.87728322     0.02100
H2635       H  0.73696674  0.64451310  0.83817351     0.15000
H2636       H  0.76532254  0.61972012  0.90356326     0.15000
C2637       C  0.74492539  0.59146528  0.88415358     0.36700
C2638       C  0.75856724  0.67241623  0.85685042     0.36600
N2639       N  0.74310772  0.57488003  0.88967091    -0.43700
N2640       N  0.76153257  0.68857947  0.85061915    -0.43700
C2641       C  0.72811954  0.76046084  0.92613381    -0.00100
C2642       C  0.74507698  0.76282641  0.91339812    -0.11900
C2643       C  0.76071876  0.74832235  0.91301502     0.02200
C2644       C  0.75977486  0.73113750  0.92589806    -0.00200
C2645       C  0.74336855  0.72939998  0.93938962    -0.11900
C2646       C  0.72760797  0.74365519  0.93954185     0.02100
H2647       H  0.74573438  0.77560757  0.90302625     0.15000
H2648       H  0.74247699  0.71643791  0.94952222     0.15000
C2649       C  0.71089769  0.74017012  0.95329723     0.36700
C2650       C  0.77679556  0.75091655  0.89834946     0.36600
N2651       N  0.69745171  0.73726703  0.96421659    -0.43700
N2652       N  0.78958388  0.75294409  0.88647680    -0.43700
C2653       C  0.67285968  0.81091268  0.98209156    -0.00100
C2654       C  0.65821353  0.79955843  0.99262325    -0.11900
C2655       C  0.65844640  0.79808593  0.01391511     0.02200
C2656       C  0.67367727  0.80813562  0.02538960    -0.00200
C2657       C  0.68755164  0.82056839  0.01495820    -0.11900
C2658       C  0.68720160  0.82215265  0.99360064     0.02100
H2659       H  0.64692888  0.79101178  0.98414696     0.15000
H2660       H  0.69908027  0.82873793  0.02347117     0.15000
C2661       C  0.70200212  0.83513847  0.98400517     0.36700
C2662       C  0.64335944  0.78528033  0.02330745     0.36600
N2663       N  0.71381769  0.84561642  0.97633125    -0.43700
N2664       N  0.63124951  0.77497617  0.03074965    -0.43700
C2665       C  0.52458723  0.68526381  0.83137236    -0.00100
C2666       C  0.51349119  0.67363516  0.81723799    -0.11900
C2667       C  0.49226363  0.67225401  0.81830156     0.02200
C2668       C  0.48157462  0.68271209  0.83378905    -0.00200
C2669       C  0.49276154  0.69314952  0.84872819    -0.11900
C2670       C  0.51396613  0.69466146  0.84759930     0.02100
H2671       H  0.52136028  0.66606248  0.80487732     0.15000
H2672       H  0.48484334  0.70123794  0.86072796     0.15000
C2673       C  0.52409424  0.70722211  0.86253341     0.36700
C2674       C  0.48189165  0.66034970  0.80298973     0.36600
N2675       N  0.53214648  0.71742491  0.87443235    -0.43700
N2676       N  0.47352937  0.65082972  0.79074067    -0.43700
C2677       C  0.62258965  0.64745583  0.81524979    -0.00100
C2678       C  0.62327566  0.63349203  0.83141521    -0.11900
C2679       C  0.63811310  0.61820505  0.83222363     0.02200
C2680       C  0.65268824  0.61658399  0.81654464    -0.00200
C2681       C  0.65116997  0.62969178  0.79976166    -0.11900
C2682       C  0.63650493  0.64505603  0.79900159     0.02100
H2683       H  0.61257939  0.63488892  0.84386148     0.15000
H2684       H  0.66208771  0.62855920  0.78747320     0.15000
C2685       C  0.63688187  0.65854290  0.78168172     0.36700
C2686       C  0.63816767  0.60471516  0.84952031     0.36600
N2687       N  0.63740715  0.66931394  0.76778823    -0.43700
N2688       N  0.63820910  0.59389992  0.86338869    -0.43700
C2689       C  0.62106474  0.73370635  0.85887038    -0.00100
C2690       C  0.61211729  0.74217187  0.87635904    -0.11900
C2691       C  0.62288663  0.75554708  0.88909035     0.02200
C2692       C  0.64317459  0.76082102  0.88442658    -0.00200
C2693       C  0.65221231  0.75202845  0.86714429    -0.11900
C2694       C  0.64152398  0.73855485  0.85452665     0.02100
H2695       H  0.59648936  0.73855009  0.88001364     0.15000
H2696       H  0.66784260  0.75559590  0.86344142     0.15000
C2697       C  0.65223070  0.72966783  0.83752762     0.36700
C2698       C  0.61259522  0.76357240  0.90674236     0.36600
N2699       N  0.66090231  0.72249794  0.82399301    -0.43700
N2700       N  0.60430477  0.76995021  0.92089760    -0.43700
C2701       C  0.67732358  0.88062973  0.85160155    -0.00100
C2702       C  0.65892952  0.87499371  0.86088517    -0.11900
C2703       C  0.65839951  0.86035445  0.87648969     0.02200
C2704       C  0.67662754  0.85111048  0.88327314    -0.00200
C2705       C  0.69502463  0.85762438  0.87474538    -0.11900
C2706       C  0.69555696  0.87202885  0.85911301     0.02100
H2707       H  0.64479329  0.88146885  0.85543332     0.15000
H2708       H  0.70919358  0.85093067  0.87984395     0.15000
C2709       C  0.71516817  0.87721293  0.85085464     0.36700
C2710       C  0.63887714  0.85468169  0.88465003     0.36600
N2711       N  0.73091014  0.88124498  0.84421910    -0.43700
N2712       N  0.62322237  0.85012269  0.89116317    -0.43700
C2713       C  0.57448288  0.76964198  0.74206483    -0.00100
C2714       C  0.58530547  0.75161385  0.73826693    -0.11900
C2715       C  0.58674466  0.73629736  0.75301974     0.02200
C2716       C  0.57714353  0.73883099  0.77209080    -0.00200
C2717       C  0.56560796  0.75642278  0.77554325    -0.11900
C2718       C  0.56407437  0.77167480  0.76079864     0.02100
H2719       H  0.59332088  0.74974319  0.72398232     0.15000
H2720       H  0.55787283  0.75839927  0.78997610     0.15000
C2721       C  0.55175036  0.78920791  0.76552138     0.36700
C2722       C  0.59915978  0.71876792  0.74853619     0.36600
N2723       N  0.54182873  0.80320485  0.76938702    -0.43700
N2724       N  0.60917353  0.70476949  0.74492712    -0.43700
C2725       C  0.51737672  0.82600080  0.69224715    -0.00100
C2726       C  0.50647350  0.81078554  0.68194290    -0.11900
C2727       C  0.48526650  0.80977546  0.68297863     0.02200
C2728       C  0.47435122  0.82431331  0.69449258    -0.00200
C2729       C  0.48511949  0.84049358  0.70341607    -0.11900
C2730       C  0.50637911  0.84144907  0.70247180     0.02100
H2731       H  0.51458321  0.79900640  0.67373319     0.15000
H2732       H  0.47700630  0.85196131  0.71205410     0.15000
C2733       C  0.51638058  0.85797348  0.71295978     0.36700
C2734       C  0.47531357  0.79316351  0.67261383     0.36600
N2735       N  0.52436327  0.87119491  0.72142249    -0.43700
N2736       N  0.46736486  0.77980643  0.66434489    -0.43700
C2737       C  0.61671162  0.85476226  0.73547271    -0.00100
C2738       C  0.60929965  0.87388176  0.74149911    -0.11900
C2739       C  0.62038065  0.88644955  0.75472611     0.02200
C2740       C  0.63951289  0.88004617  0.76213096    -0.00200
C2741       C  0.64706620  0.86108116  0.75581412    -0.11900
C2742       C  0.63595784  0.84846581  0.74271349     0.02100
H2743       H  0.59459072  0.87898162  0.73609286     0.15000
H2744       H  0.66177348  0.85595657  0.76120604     0.15000
C2745       C  0.64488753  0.82922988  0.73701411     0.36700
C2746       C  0.61168866  0.90582920  0.76024340     0.36600
N2747       N  0.65212166  0.81383318  0.73252520    -0.43700
N2748       N  0.60465685  0.92133926  0.76465592    -0.43700
C2749       C  0.92230334  0.75959825  0.73354239    -0.00100
C2750       C  0.93429936  0.74223250  0.73041630    -0.11900
C2751       C  0.93483082  0.72643009  0.74461583     0.02200
C2752       C  0.92329216  0.72783292  0.76272511    -0.00200
C2753       C  0.91195307  0.74559663  0.76627393    -0.11900
C2754       C  0.91128810  0.76135401  0.75193382     0.02100
H2755       H  0.94302214  0.74070879  0.71650965     0.15000
H2756       H  0.90308118  0.74700018  0.78009251     0.15000
C2757       C  0.89852297  0.77866484  0.75627552     0.36700
C2758       C  0.94692004  0.70878948  0.73967745     0.36600
N2759       N  0.88820952  0.79246410  0.75981331    -0.43700
N2760       N  0.95654493  0.69466284  0.73553779    -0.43700
C2761       C  0.97986416  0.81417319  0.68118493    -0.00100
C2762       C  0.99046867  0.80526494  0.66490778    -0.11900
C2763       C  0.01170867  0.80445776  0.66471677     0.02200
C2764       C  0.02294443  0.81287516  0.68107604    -0.00200
C2765       C  0.01240431  0.82319985  0.69653505    -0.11900
C2766       C  0.99113793  0.82387609  0.69680104     0.02100
H2767       H  0.98213207  0.79799271  0.65264306     0.15000
H2768       H  0.02076402  0.83002714  0.70903958     0.15000
C2769       C  0.98152040  0.83388808  0.71381741     0.36700
C2770       C  0.02131588  0.79395949  0.64797782     0.36600
N2771       N  0.97401821  0.84191994  0.72757047    -0.43700
N2772       N  0.02892747  0.78546599  0.63456604    -0.43700
C2773       C  0.82838988  0.68801469  0.52792538    -0.00100
C2774       C  0.84423954  0.69775938  0.51751615    -0.11900
C2775       C  0.84496309  0.69799379  0.49619127     0.02200
C2776       C  0.82949402  0.68832724  0.48473206    -0.00200
C2777       C  0.81462115  0.67717751  0.49515295    -0.11900
C2778       C  0.81403108  0.67677175  0.51648027     0.02100
H2779       H  0.85561770  0.70615161  0.52602290     0.15000
H2780       H  0.80295348  0.66923239  0.48661001     0.15000
C2781       C  0.79819391  0.66505610  0.52604743     0.36700
C2782       C  0.86110676  0.70935138  0.48668371     0.36600
N2783       N  0.78552670  0.65557182  0.53364796    -0.43700
N2784       N  0.87407012  0.71848354  0.47914830    -0.43700
C2785       C  0.81987160  0.65138271  0.62474245    -0.00100
C2786       C  0.83846630  0.64153171  0.62840895    -0.11900
C2787       C  0.84000794  0.62548255  0.64234870     0.02200
C2788       C  0.82257925  0.61875090  0.65290519    -0.00200
C2789       C  0.80385109  0.62807763  0.64862014    -0.11900
C2790       C  0.80234600  0.64427267  0.63490463     0.02100
H2791       H  0.85205080  0.64670019  0.62070388     0.15000
H2792       H  0.79031250  0.62322590  0.65661465     0.15000
C2793       C  0.78274020  0.65381602  0.63251845     0.36700
C2794       C  0.85981873  0.61676763  0.64586075     0.36600
N2795       N  0.76698393  0.66141831  0.63082134    -0.43700
N2796       N  0.87575401  0.60990166  0.64866613    -0.43700
C2797       C  0.88188758  0.76793845  0.64615597    -0.00100
C2798       C  0.86076708  0.76846381  0.64909086    -0.11900
C2799       C  0.84762141  0.75655977  0.63721320     0.02200
C2800       C  0.85558108  0.74340472  0.62212030    -0.00200
C2801       C  0.87662778  0.74349231  0.61866081    -0.11900
C2802       C  0.88974467  0.75556473  0.63040751     0.02100
H2803       H  0.85443809  0.77822455  0.66079674     0.15000
H2804       H  0.88299969  0.73368535  0.60702274     0.15000
C2805       C  0.91123924  0.75418087  0.62645077     0.36700
C2806       C  0.82607419  0.75846761  0.64078003     0.36600
N2807       N  0.92845861  0.75298806  0.62322637    -0.43700
N2808       N  0.80882530  0.76013723  0.64364599    -0.43700
C2809       C  0.75506952  0.92152325  0.72738458    -0.00100
C2810       C  0.75897610  0.91243033  0.74635294    -0.11900
C2811       C  0.74415934  0.91184199  0.76165204     0.02200
C2812       C  0.72475431  0.92034602  0.75808427    -0.00200
C2813       C  0.72109738  0.93004658  0.73939595    -0.11900
C2814       C  0.73596033  0.93087377  0.72421376     0.02100
H2815       H  0.77361025  0.90542338  0.74919429     0.15000
H2816       H  0.70642286  0.93695678  0.73649426     0.15000
C2817       C  0.73089700  0.94130476  0.70555479     0.36700
C2818       C  0.74926302  0.90196300  0.78059081     0.36600
N2819       N  0.72674052  0.94976549  0.69068795    -0.43700
N2820       N  0.75340760  0.89406180  0.79576681    -0.43700
C2821       C  0.88321930  0.85325587  0.68508203    -0.00100
C2822       C  0.87536892  0.85913194  0.66609719    -0.11900
C2823       C  0.85943951  0.87316176  0.66462523     0.02200
C2824       C  0.85107309  0.88183071  0.68249437    -0.00200
C2825       C  0.85981354  0.87687855  0.70139029    -0.11900
C2826       C  0.87571763  0.86280144  0.70283476     0.02100
H2827       H  0.88100708  0.85199043  0.65232314     0.15000
H2828       H  0.85389638  0.88367127  0.71521785     0.15000
C2829       C  0.88387905  0.85836914  0.72276277     0.36700
C2830       C  0.85149281  0.87748760  0.64458780     0.36600
N2831       N  0.89044721  0.85482883  0.73872331    -0.43700
N2832       N  0.84518011  0.88085516  0.62848639    -0.43700
C2833       C  0.73920233  0.77199329  0.58241921    -0.00100
C2834       C  0.75432233  0.77240025  0.56736001    -0.11900
C2835       C  0.76971108  0.75773006  0.56675722     0.02200
C2836       C  0.77039681  0.74228396  0.58168076    -0.00200
C2837       C  0.75479313  0.74134134  0.59617949    -0.11900
C2838       C  0.73931042  0.75591987  0.59669544     0.02100
H2839       H  0.75428524  0.78437536  0.55603969     0.15000
H2840       H  0.75496703  0.72947066  0.60761005     0.15000
C2841       C  0.72412776  0.75411919  0.61240230     0.36700
C2842       C  0.78437423  0.75889136  0.55048462     0.36600
N2843       N  0.71199445  0.75258541  0.62501711    -0.43700
N2844       N  0.79601119  0.75980618  0.53734546    -0.43700
C2845       C  0.68810805  0.82617174  0.52337753    -0.00100
C2846       C  0.68539288  0.80788593  0.51269843    -0.11900
C2847       C  0.68669038  0.80711701  0.49146680     0.02200
C2848       C  0.69072662  0.82504300  0.48029080    -0.00200
C2849       C  0.69243058  0.84354010  0.49090774    -0.11900
C2850       C  0.69097005  0.84428305  0.51221898     0.02100
H2851       H  0.68316016  0.79384452  0.52102094     0.15000
H2852       H  0.69512917  0.85747473  0.48255810     0.15000
C2853       C  0.69217965  0.86384039  0.52214343     0.36700
C2854       C  0.68490242  0.78742653  0.48186914     0.36600
N2855       N  0.69295330  0.87955143  0.53005575    -0.43700
N2856       N  0.68347142  0.77158244  0.47432379    -0.43700
C2857       C  0.64464871  0.81876855  0.61809328    -0.00100
C2858       C  0.63877758  0.79992612  0.62620684    -0.11900
C2859       C  0.62324973  0.79848233  0.64066716     0.02200
C2860       C  0.61330196  0.81624931  0.64761021    -0.00200
C2861       C  0.61803947  0.83486780  0.63828948    -0.11900
C2862       C  0.63340845  0.83625670  0.62358742     0.02100
H2863       H  0.64680679  0.78623170  0.62176527     0.15000
H2864       H  0.61021353  0.84858795  0.64300014     0.15000
C2865       C  0.63728954  0.85585318  0.61457099     0.36700
C2866       C  0.61819299  0.77854245  0.64825813     0.36600
N2867       N  0.64022694  0.87156614  0.60727423    -0.43700
N2868       N  0.61412620  0.76252823  0.65423752    -0.43700
C2869       C  0.73801462  0.85707060  0.61790036    -0.00100
C2870       C  0.73771741  0.87823569  0.61526899    -0.11900
C2871       C  0.75040050  0.89093190  0.62681519     0.02200
C2872       C  0.76342283  0.88244112  0.64169815    -0.00200
C2873       C  0.76434732  0.86122398  0.64361714    -0.11900
C2874       C  0.75216606  0.84853639  0.63166164     0.02100
H2875       H  0.72729691  0.88495032  0.60437778     0.15000
H2876       H  0.77483518  0.85443704  0.65440580     0.15000
C2877       C  0.75522980  0.82685036  0.63325714     0.36700
C2878       C  0.74933875  0.91254269  0.62325377     0.36600
N2879       N  0.75788328  0.80949944  0.63435223    -0.43700
N2880       N  0.74849398  0.92983163  0.62018129    -0.43700
C2881       C  0.32611596  0.98004983  0.81793853    -0.00100
C2882       C  0.30914463  0.99029044  0.82587435    -0.11900
C2883       C  0.30786732  0.01156423  0.82559976     0.02200
C2884       C  0.32389877  0.02317197  0.81723423    -0.00200
C2885       C  0.34142866  0.01295768  0.81059385    -0.11900
C2886       C  0.34269900  0.99169492  0.81090989     0.02100
H2887       H  0.29635188  0.98163122  0.83153941     0.15000
H2888       H  0.35405409  0.02157572  0.80451276     0.15000
C2889       C  0.36116245  0.98235167  0.80368794     0.36700
C2890       C  0.28957189  0.02083433  0.83337206     0.36600
N2891       N  0.37601941  0.97494048  0.79793657    -0.43700
N2892       N  0.27488358  0.02817362  0.83963872    -0.43700
C2893       C  0.38036628  0.14521786  0.74258159    -0.00100
C2894       C  0.36177019  0.15270211  0.74981759    -0.11900
C2895       C  0.34924120  0.14102910  0.76230982     0.02200
C2896       C  0.35508521  0.12107679  0.76784183    -0.00200
C2897       C  0.37368415  0.11349227  0.76056012    -0.11900
C2898       C  0.38629839  0.12529095  0.74805721     0.02100
H2899       H  0.35696486  0.16796596  0.74587972     0.15000
H2900       H  0.37841484  0.09823616  0.76459137     0.15000
C2901       C  0.40513859  0.11646765  0.74114590     0.36700
C2902       C  0.33062252  0.15028085  0.76929085     0.36600
N2903       N  0.42022623  0.10935427  0.73561641    -0.43700
N2904       N  0.31576621  0.15786062  0.77482449    -0.43700
C2905       C  0.32800575  0.18675275  0.97983610    -0.00100
C2906       C  0.34499156  0.19434270  0.99036418    -0.11900
C2907       C  0.34627290  0.19326630  0.01162656     0.02200
C2908       C  0.33031009  0.18430928  0.02284814    -0.00200
C2909       C  0.31427609  0.17507242  0.01218138    -0.11900
C2910       C  0.31290639  0.17629039  0.99095033     0.02100
H2911       H  0.35693008  0.20204501  0.98206583     0.15000
H2912       H  0.30205027  0.16787355  0.02051358     0.15000
C2913       C  0.29518117  0.16766005  0.98128773     0.36700
C2914       C  0.36373000  0.20231095  0.02142522     0.36600
N2915       N  0.28090432  0.16082741  0.97360016    -0.43700
N2916       N  0.37768541  0.20961282  0.02927867    -0.43700
C2917       C  0.31832704  0.15122512  0.88503536    -0.00100
C2918       C  0.33683071  0.14362175  0.87765947    -0.11900
C2919       C  0.33739874  0.12799167  0.86319564     0.02200
C2920       C  0.31908612  0.11947075  0.85581395    -0.00200
C2921       C  0.30062654  0.12624785  0.86408268    -0.11900
C2922       C  0.30005308  0.14197580  0.87846854     0.02100
H2923       H  0.35099673  0.15043500  0.88261305     0.15000
H2924       H  0.28645042  0.11975555  0.85873494     0.15000
C2925       C  0.28041376  0.14865434  0.88557583     0.36700
C2926       C  0.35700945  0.12190582  0.85551974     0.36600
N2927       N  0.26466266  0.15403955  0.89119606    -0.43700
N2928       N  0.37273895  0.11709949  0.84934925    -0.43700
C2929       C  0.42284329  0.26451224  0.78001005    -0.00100
C2930       C  0.43137302  0.24543552  0.78425818    -0.11900
C2931       C  0.43024285  0.22946091  0.77029225     0.02200
C2932       C  0.42059850  0.23239309  0.75126655    -0.00200
C2933       C  0.41252809  0.25164089  0.74671132    -0.11900
C2934       C  0.41342195  0.26761154  0.76088478     0.02100
H2935       H  0.43860228  0.24273050  0.79885861     0.15000
H2936       H  0.40513052  0.25414291  0.73216218     0.15000
C2937       C  0.40441551  0.28683679  0.75534865     0.36700
C2938       C  0.43924021  0.21030166  0.77608710     0.36600
N2939       N  0.39714511  0.30219880  0.75083235    -0.43700
N2940       N  0.44644158  0.19498394  0.78084657    -0.43700
C2941       C  0.38410944  0.26502055  0.86243573    -0.00100
C2942       C  0.38551529  0.26525348  0.88376065    -0.11900
C2943       C  0.37333524  0.25257345  0.89567038     0.02200
C2944       C  0.35926928  0.23935263  0.88622947    -0.00200
C2945       C  0.35820535  0.23873708  0.86489568    -0.11900
C2946       C  0.37058360  0.25120405  0.85296262     0.02100
H2947       H  0.39590282  0.27567183  0.89122356     0.15000
H2948       H  0.34775226  0.22834146  0.85748348     0.15000
C2949       C  0.36942697  0.24902260  0.83108875     0.36700
C2950       C  0.37503324  0.25411647  0.91753891     0.36600
N2951       N  0.36862917  0.24723802  0.81356878    -0.43700
N2952       N  0.37636012  0.25532700  0.93507052    -0.43700
C2953       C  0.16996643  0.47839664  0.69338643    -0.00100
C2954       C  0.18604749  0.48834991  0.68349533    -0.11900
C2955       C  0.18724098  0.50963447  0.68299702     0.02200
C2956       C  0.17206297  0.52149737  0.69255679    -0.00200
C2957       C  0.15519233  0.51154902  0.70095094    -0.11900
C2958       C  0.15399196  0.49030825  0.70145017     0.02100
H2959       H  0.19825377  0.47950140  0.67685348     0.15000
H2960       H  0.14319618  0.52037470  0.70799837     0.15000
C2961       C  0.13643781  0.48134053  0.71098631     0.36700
C2962       C  0.20453660  0.51873514  0.67309377     0.36600
N2963       N  0.12233354  0.47425122  0.71866260    -0.43700
N2964       N  0.21839161  0.52602168  0.66514480    -0.43700
C2965       C  0.14018590  0.37995316  0.74282729    -0.00100
C2966       C  0.12124602  0.38712158  0.74958168    -0.11900
C2967       C  0.10861888  0.37514052  0.76187531     0.02200
C2968       C  0.11490266  0.35545071  0.76783578    -0.00200
C2969       C  0.13379436  0.34828157  0.76101800    -0.11900
C2970       C  0.14635413  0.36017141  0.74866979     0.02100
H2971       H  0.11621175  0.40219528  0.74523913     0.15000
H2972       H  0.13886277  0.33320372  0.76531931     0.15000
C2973       C  0.16536952  0.35139184  0.74216568     0.36700
C2974       C  0.08929312  0.38350527  0.76796313     0.36600
N2975       N  0.18056894  0.34427275  0.73696200    -0.43700
N2976       N  0.07377398  0.39017199  0.77280506    -0.43700
C2977       C  0.23874800  0.27246451  0.92443842    -0.00100
C2978       C  0.25402325  0.27339725  0.93937808    -0.11900
C2979       C  0.26998715  0.25936152  0.93970127     0.02200
C2980       C  0.27112009  0.24408094  0.92457641    -0.00200
C2981       C  0.25546427  0.24271411  0.91006816    -0.11900
C2982       C  0.23935647  0.25660427  0.90989751     0.02100
H2983       H  0.25355890  0.28520839  0.95091171     0.15000
H2984       H  0.25596537  0.23094369  0.89849925     0.15000
C2985       C  0.22404706  0.25438507  0.89428169     0.36700
C2986       C  0.28465562  0.26088697  0.95600642     0.36600
N2987       N  0.21177761  0.25253165  0.88177807    -0.43700
N2988       N  0.29626825  0.26212216  0.96919836    -0.43700
C2989       C  0.18775021  0.32515564  0.98486414    -0.00100
C2990       C  0.17719999  0.31033535  0.99593268    -0.11900
C2991       C  0.17870673  0.30931473  0.01718927     0.02200
C2992       C  0.19100248  0.32344297  0.02786764    -0.00200
C2993       C  0.20078646  0.33882005  0.01680120    -0.11900
C2994       C  0.19938831  0.33974198  0.99556613     0.02100
H2995       H  0.16823184  0.29905310  0.98789011     0.15000
H2996       H  0.21032643  0.34973847  0.02467129     0.15000
C2997       C  0.21137741  0.35487042  0.98516826     0.36700
C2998       C  0.16795460  0.29316295  0.02736827     0.36600
N2999       N  0.22105451  0.36684781  0.97672584    -0.43700
N3000       N  0.15932123  0.28014574  0.03539610    -0.43700
C3001       C  0.11297511  0.31937122  0.85900660    -0.00100
C3002       C  0.11894331  0.30076777  0.86759944    -0.11900
C3003       C  0.13334933  0.29995983  0.88324781     0.02200
C3004       C  0.14224288  0.31811339  0.89058046    -0.00200
C3005       C  0.13495343  0.33678829  0.88323014    -0.11900
C3006       C  0.12044088  0.33760097  0.86765893     0.02100
H3007       H  0.11294954  0.28664607  0.86153779     0.15000
H3008       H  0.14125756  0.35088876  0.88901589     0.15000
C3009       C  0.11409334  0.35737952  0.86058907     0.36700
C3010       C  0.13909193  0.28020184  0.89086285     0.36600
N3011       N  0.10903830  0.37328537  0.85505486    -0.43700
N3012       N  0.14360987  0.26432639  0.89691953    -0.43700
C3013       C  0.25559196  0.42069464  0.77754266    -0.00100
C3014       C  0.25793567  0.40840797  0.76018149    -0.11900
C3015       C  0.24333535  0.40833513  0.74456914     0.02200
C3016       C  0.22592270  0.42087407  0.74611704    -0.00200
C3017       C  0.22416933  0.43387985  0.76299319    -0.11900
C3018       C  0.23866689  0.43391785  0.77857660     0.02100
H3019       H  0.27089072  0.39829189  0.75907461     0.15000
H3020       H  0.21111074  0.44384112  0.76430531     0.15000
C3021       C  0.23549493  0.44759214  0.79551580     0.36700
C3022       C  0.24633566  0.39462345  0.72765261     0.36600
N3023       N  0.23295376  0.45848926  0.80912880    -0.43700
N3024       N  0.24879365  0.38357991  0.71414334    -0.43700
C3025       C  0.30567600  0.47643208  0.83513932    -0.00100
C3026       C  0.31994777  0.48636027  0.82279046    -0.11900
C3027       C  0.32083040  0.50761904  0.82183643     0.02200
C3028       C  0.30744819  0.51949283  0.83374276    -0.00200
C3029       C  0.29397742  0.50956309  0.84694807    -0.11900
C3030       C  0.29275304  0.48834308  0.84756820     0.02100
H3031       H  0.33001205  0.47748923  0.81321364     0.15000
H3032       H  0.28351959  0.51841190  0.85611942     0.15000
C3033       C  0.27706764  0.47949489  0.86006387     0.36700
C3034       C  0.33522533  0.51666884  0.80803081     0.36600
N3035       N  0.26432893  0.47256599  0.86996590    -0.43700
N3036       N  0.34672317  0.52382222  0.79685160    -0.43700
C3037       C  0.34851489  0.38133662  0.82965043    -0.00100
C3038       C  0.36186260  0.38058785  0.81300564    -0.11900
C3039       C  0.37857777  0.36736642  0.81292263     0.02200
C3040       C  0.38217231  0.35454721  0.82980003    -0.00200
C3041       C  0.36931833  0.35596399  0.84675040    -0.11900
C3042       C  0.35249057  0.36889568  0.84672811     0.02100
H3043       H  0.35905406  0.39013918  0.79986088     0.15000
H3044       H  0.37168377  0.34602050  0.85969434     0.15000
C3045       C  0.33869062  0.36761968  0.86373336     0.36700
C3046       C  0.39162569  0.36720402  0.79528516     0.36600
N3047       N  0.32760564  0.36630269  0.87730750    -0.43700
N3048       N  0.40210095  0.36707048  0.78116430    -0.43700
C3049       C  0.25842869  0.37902619  0.86259509    -0.00100
C3050       C  0.25256456  0.38646907  0.88179017    -0.11900
C3051       C  0.23948059  0.37540889  0.89439244     0.02200
C3052       C  0.23200912  0.35632427  0.88787033    -0.00200
C3053       C  0.23780019  0.34897192  0.86865013    -0.11900
C3054       C  0.25079717  0.36001153  0.85605236     0.02100
H3055       H  0.25814067  0.40108766  0.88700366     0.15000
H3056       H  0.23224304  0.33436520  0.86337531     0.15000
C3057       C  0.25598913  0.35119384  0.83659445     0.36700
C3058       C  0.23404078  0.38416631  0.91380866     0.36600
N3059       N  0.26004712  0.34400875  0.82102903    -0.43700
N3060       N  0.22971872  0.39128196  0.92933572    -0.43700
C3061       C  0.17121686  0.31114814  0.48538845    -0.00100
C3062       C  0.18825674  0.31880334  0.49580653    -0.11900
C3063       C  0.18911184  0.31905609  0.51712729     0.02200
C3064       C  0.17252008  0.31165807  0.52856929    -0.00200
C3065       C  0.15495108  0.30539258  0.51815823    -0.11900
C3066       C  0.15415526  0.30499308  0.49686144     0.02100
H3067       H  0.20143599  0.32375194  0.48728968     0.15000
H3068       H  0.14197183  0.29994348  0.52667858     0.15000
C3069       C  0.13584846  0.29742379  0.48741082     0.36700
C3070       C  0.20765443  0.32599624  0.52663451     0.36600
N3071       N  0.12113279  0.29127523  0.47998322    -0.43700
N3072       N  0.22255857  0.33151808  0.53418566    -0.43700
C3073       C  0.17694332  0.35110143  0.62381589    -0.00100
C3074       C  0.15839385  0.36041949  0.62891912    -0.11900
C3075       C  0.15751191  0.37611687  0.64345765     0.02200
C3076       C  0.17543306  0.38240915  0.65359241    -0.00200
C3077       C  0.19404025  0.37410534  0.64734415    -0.11900
C3078       C  0.19499383  0.35883345  0.63257667     0.02100
H3079       H  0.14444098  0.35510566  0.62192841     0.15000
H3080       H  0.20803927  0.37915622  0.65444692     0.15000
C3081       C  0.21482460  0.35128392  0.62707487     0.36700
C3082       C  0.13804502  0.38528830  0.64764543     0.36600
N3083       N  0.23072832  0.34529683  0.62262492    -0.43700
N3084       N  0.12243648  0.39274323  0.65074917    -0.43700
C3085       C  0.07559942  0.23755082  0.73568416    -0.00100
C3086       C  0.09226466  0.23881183  0.74897039    -0.11900
C3087       C  0.09318153  0.25375835  0.76413593     0.02200
C3088       C  0.07703078  0.26774926  0.76634726    -0.00200
C3089       C  0.05986914  0.26574305  0.75377041    -0.11900
C3090       C  0.05899853  0.25084736  0.73856088     0.02100
H3091       H  0.10508796  0.22867186  0.74692641     0.15000
H3092       H  0.04718884  0.27611106  0.75555635     0.15000
C3093       C  0.04089353  0.24961777  0.72616246     0.36700
C3094       C  0.11143851  0.25505473  0.77627199     0.36600
N3095       N  0.02640996  0.24859000  0.71620819    -0.43700
N3096       N  0.12611658  0.25612641  0.78592507    -0.43700
C3097       C  0.11373974  0.23879476  0.65025670    -0.00100
C3098       C  0.11045653  0.23900701  0.62911483    -0.11900
C3099       C  0.12213557  0.25130660  0.61629584     0.02200
C3100       C  0.13771035  0.26356354  0.62462053    -0.00200
C3101       C  0.14060431  0.26373774  0.64580030    -0.11900
C3102       C  0.12870894  0.25176048  0.65863229     0.02100
H3103       H  0.09889699  0.22929105  0.62248426     0.15000
H3104       H  0.15217654  0.27342603  0.65245785     0.15000
C3105       C  0.13191650  0.25366662  0.68031818     0.36700
C3106       C  0.11801118  0.25058343  0.59470807     0.36600
N3107       N  0.13447131  0.25540797  0.69767382    -0.43700
N3108       N  0.11453454  0.24997482  0.57743803    -0.43700
C3109       C  0.22474434  0.25588681  0.58660358    -0.00100
C3110       C  0.24075903  0.25733814  0.60068995    -0.11900
C3111       C  0.25637182  0.24283646  0.60120273     0.02200
C3112       C  0.25622469  0.22631635  0.58735625    -0.00200
C3113       C  0.24044318  0.22514617  0.57295814    -0.11900
C3114       C  0.22492596  0.23973397  0.57234894     0.02100
H3115       H  0.24089978  0.26965363  0.61168721     0.15000
H3116       H  0.24021414  0.21277309  0.56202731     0.15000
C3117       C  0.20971855  0.23795413  0.55657042     0.36700
C3118       C  0.27192079  0.24507066  0.61656739     0.36600
N3119       N  0.19758268  0.23664272  0.54386807    -0.43700
N3120       N  0.28435464  0.24689935  0.62890897    -0.43700
C3121       C  0.31369485  0.17202462  0.52891412    -0.00100
C3122       C  0.30729257  0.15417797  0.51899956    -0.11900
C3123       C  0.30620050  0.15308038  0.49767991     0.02200
C3124       C  0.31156739  0.17016033  0.48579188    -0.00200
C3125       C  0.31984381  0.18721629  0.49569894    -0.11900
C3126       C  0.32101145  0.18828099  0.51696186     0.02100
H3127       H  0.30207899  0.14135679  0.52791575     0.15000
H3128       H  0.32462066  0.20025452  0.48685514     0.15000
C3129       C  0.32915751  0.20658202  0.52598584     0.36700
C3130       C  0.29879082  0.13449782  0.48862046     0.36600
N3131       N  0.33567329  0.22124188  0.53323543    -0.43700
N3132       N  0.29288237  0.11954963  0.48143853    -0.43700
C3133       C  0.35120487  0.18219683  0.62524394    -0.00100
C3134       C  0.35489952  0.20082633  0.63506970    -0.11900
C3135       C  0.36957792  0.20265563  0.65038038     0.02200
C3136       C  0.38110234  0.18552846  0.65633159    -0.00200
C3137       C  0.37849971  0.16723523  0.64552223    -0.11900
C3138       C  0.36375778  0.16541279  0.63011924     0.02100
H3139       H  0.34577497  0.21401649  0.63129218     0.15000
H3140       H  0.38747541  0.15403591  0.64961510     0.15000
C3141       C  0.36178846  0.14606046  0.61992378     0.36700
C3142       C  0.37210518  0.22231542  0.65986696     0.36600
N3143       N  0.36044386  0.13048271  0.61182289    -0.43700
N3144       N  0.37408027  0.23808864  0.66743648    -0.43700
C3145       C  0.23851854  0.07908062  0.73307095    -0.00100
C3146       C  0.25539021  0.06618637  0.73112828    -0.11900
C3147       C  0.27096655  0.06613903  0.74559780     0.02200
C3148       C  0.27015171  0.07958580  0.76240483    -0.00200
C3149       C  0.25288546  0.09191460  0.76483404    -0.11900
C3150       C  0.23704728  0.09163279  0.75052248     0.02100
H3151       H  0.25654735  0.05608891  0.71810591     0.15000
H3152       H  0.25182591  0.10203531  0.77784245     0.15000
C3153       C  0.21968789  0.10453566  0.75414332     0.36700
C3154       C  0.28738753  0.05186107  0.74278892     0.36600
N3155       N  0.20572665  0.11477507  0.75718147    -0.43700
N3156       N  0.30046650  0.04032231  0.74059323    -0.43700
C3157       C  0.18978737  0.02024459  0.67518588    -0.00100
C3158       C  0.17549072  0.00974256  0.68702794    -0.11900
C3159       C  0.17518214  0.98843535  0.68760026     0.02200
C3160       C  0.18948421  0.97716571  0.67619386    -0.00200
C3161       C  0.20288249  0.98765144  0.66337927    -0.11900
C3162       C  0.20325455  0.00888780  0.66281874     0.02100
H3163       H  0.16484207  0.01819348  0.69634642     0.15000
H3164       H  0.21389899  0.97925566  0.65444306     0.15000
C3165       C  0.21851743  0.01838945  0.65028064     0.36700
C3166       C  0.16012102  0.97865543  0.70013691     0.36600
N3167       N  0.23082751  0.02592787  0.64028308    -0.43700
N3168       N  0.14796799  0.97087363  0.71013753    -0.43700
C3169       C  0.11647642  0.14793816  0.68270337    -0.00100
C3170       C  0.11951897  0.13610737  0.70024780    -0.11900
C3171       C  0.13429602  0.12077701  0.70078256     0.02200
C3172       C  0.14650546  0.11708392  0.68350388    -0.00200
C3173       C  0.14279478  0.12822357  0.66567897    -0.11900
C3174       C  0.12806694  0.14353489  0.66511080     0.02100
H3175       H  0.11057416  0.13907189  0.71377259     0.15000
H3176       H  0.15204228  0.12557143  0.65229116     0.15000
C3177       C  0.12605905  0.15504026  0.64650947     0.36700
C3178       C  0.13650495  0.10908439  0.71923258     0.36600
N3179       N  0.12454703  0.16423388  0.63158117    -0.43700
N3180       N  0.13823406  0.09964809  0.73398323    -0.43700
C3181       C  0.23556176  0.11759512  0.64784575    -0.00100
C3182       C  0.23385034  0.11678601  0.62651988    -0.11900
C3183       C  0.24649825  0.12852645  0.61404821     0.02200
C3184       C  0.26149590  0.14110809  0.62294980    -0.00200
C3185       C  0.26323508  0.14178485  0.64422011    -0.11900
C3186       C  0.25051184  0.13030470  0.65665947     0.02100
H3187       H  0.22232756  0.10726062  0.61955589     0.15000
H3188       H  0.27467853  0.15135963  0.65126051     0.15000
C3189       C  0.25350779  0.13175465  0.67841036     0.36700
C3190       C  0.24304624  0.12807309  0.59232904     0.36600
N3191       N  0.25589290  0.13296540  0.69583286    -0.43700
N3192       N  0.24015399  0.12781952  0.57494229    -0.43700
C3193       C  0.81590925  0.97667320  0.67471128    -0.00100
C3194       C  0.80859316  0.98733767  0.65770113    -0.11900
C3195       C  0.80840160  0.00862547  0.65738429     0.02200
C3196       C  0.81569887  0.01966562  0.67439849    -0.00200
C3197       C  0.82496744  0.00897170  0.69040543    -0.11900
C3198       C  0.82526378  0.98771363  0.69066043     0.02100
H3199       H  0.80178367  0.97908127  0.64511663     0.15000
H3200       H  0.83122995  0.01722585  0.70327606     0.15000
C3201       C  0.83465438  0.97775752  0.70785120     0.36700
C3202       C  0.79924518  0.01851877  0.64004321     0.36600
N3203       N  0.84219227  0.96975526  0.72160222    -0.43700
N3204       N  0.79185532  0.02638497  0.62613445    -0.43700
C3205       C  0.68744303  0.17172055  0.52845845    -0.00100
C3206       C  0.69535162  0.15461179  0.51837994    -0.11900
C3207       C  0.69497556  0.15305340  0.49710874     0.02200
C3208       C  0.68662497  0.16896393  0.48529826    -0.00200
C3209       C  0.67751412  0.18545277  0.49542965    -0.11900
C3210       C  0.67780415  0.18696341  0.51673492     0.02100
H3211       H  0.70246374  0.14258096  0.52712195     0.15000
H3212       H  0.67080481  0.19769288  0.48666404     0.15000
C3213       C  0.66886824  0.20479141  0.52592965     0.36700
C3214       C  0.70380889  0.13515502  0.48795834     0.36600
N3215       N  0.66169025  0.21909252  0.53325590    -0.43700
N3216       N  0.71088187  0.12079222  0.48065353    -0.43700
C3217       C  0.73793972  0.14075447  0.62373027    -0.00100
C3218       C  0.75380903  0.14968825  0.63492254    -0.11900
C3219       C  0.76712263  0.13788824  0.64657262     0.02200
C3220       C  0.76468781  0.11656355  0.64724579    -0.00200
C3221       C  0.74897445  0.10757433  0.63591479    -0.11900
C3222       C  0.73560226  0.11940522  0.62429229     0.02100
H3223       H  0.75597044  0.16601862  0.63446565     0.15000
H3224       H  0.74684014  0.09124485  0.63646455     0.15000
C3225       C  0.71929561  0.10920335  0.61371085     0.36700
C3226       C  0.78341297  0.14810279  0.65722566     0.36600
N3227       N  0.70622126  0.10094932  0.60530272    -0.43700
N3228       N  0.79647661  0.15627056  0.66574282    -0.43700
C3229       C  0.72653934  0.07864441  0.75953948    -0.00100
C3230       C  0.74478205  0.08904700  0.76316094    -0.11900
C3231       C  0.76042597  0.08901613  0.74875642     0.02200
C3232       C  0.75819627  0.07790412  0.73041482    -0.00200
C3233       C  0.74013563  0.06704598  0.72707331    -0.11900
C3234       C  0.72435805  0.06739231  0.74129489     0.02100
H3235       H  0.74657502  0.09788073  0.77700852     0.15000
H3236       H  0.73817382  0.05839965  0.71313122     0.15000
C3237       C  0.70620919  0.05593644  0.73670323     0.36700
C3238       C  0.77800699  0.10146518  0.75284573     0.36600
N3239       N  0.69166409  0.04679292  0.73296954    -0.43700
N3240       N  0.79196692  0.11162952  0.75612578    -0.43700
C3241       C  0.67276153  0.02158622  0.80979485    -0.00100
C3242       C  0.65740512  0.01155641  0.79878864    -0.11900
C3243       C  0.65641911  0.99027111  0.79790783     0.02200
C3244       C  0.67109939  0.97834960  0.80820415    -0.00200
C3245       C  0.68604588  0.98838665  0.81977170    -0.11900
C3246       C  0.68695673  0.00967893  0.82074093     0.02100
H3247       H  0.64632882  0.02037605  0.79034029     0.15000
H3248       H  0.69738024  0.97956784  0.82786392     0.15000
C3249       C  0.70287376  0.01875469  0.83286040     0.36700
C3250       C  0.64047431  0.98126157  0.78577284     0.36600
N3251       N  0.71558649  0.02605021  0.84261759    -0.43700
N3252       N  0.62767379  0.97409401  0.77603549    -0.43700
C3253       C  0.52047328  0.17882611  0.69645167    -0.00100
C3254       C  0.51004947  0.19601513  0.68925510    -0.11900
C3255       C  0.48883307  0.19718769  0.68989466     0.02200
C3256       C  0.47743337  0.18080159  0.69783216    -0.00200
C3257       C  0.48778953  0.16319307  0.70403008    -0.11900
C3258       C  0.50901767  0.16200952  0.70335145     0.02100
H3259       H  0.51853045  0.20902851  0.68381334     0.15000
H3260       H  0.47929821  0.15036676  0.70988691     0.15000
C3261       C  0.51844966  0.14343436  0.71022755     0.36700
C3262       C  0.47942397  0.21579038  0.68304243     0.36600
N3263       N  0.52584975  0.12846087  0.71572606    -0.43700
N3264       N  0.47196682  0.23073749  0.67754737    -0.43700
C3265       C  0.61828254  0.18360538  0.65595180    -0.00100
C3266       C  0.62517927  0.16455512  0.64904632    -0.11900
C3267       C  0.64072258  0.16292074  0.63454854     0.02200
C3268       C  0.64965276  0.18066767  0.62639970    -0.00200
C3269       C  0.64213546  0.19966562  0.63259666    -0.11900
C3270       C  0.62672334  0.20131607  0.64717683     0.02100
H3271       H  0.61897371  0.15078169  0.65558410     0.15000
H3272       H  0.64869136  0.21343082  0.62637972     0.15000
C3273       C  0.62052835  0.22148707  0.65320686     0.36700
C3274       C  0.64790460  0.14283838  0.62931609     0.36600
N3275       N  0.61574382  0.23773086  0.65798247    -0.43700
N3276       N  0.65369071  0.12673189  0.62522846    -0.43700
C3277       C  0.61691006  0.14811178  0.74514840    -0.00100
C3278       C  0.61117776  0.12775433  0.74800655    -0.11900
C3279       C  0.62283031  0.11461276  0.76006263     0.02200
C3280       C  0.64083742  0.12171724  0.76940679    -0.00200
C3281       C  0.64634250  0.14215924  0.76689790    -0.11900
C3282       C  0.63454309  0.15538741  0.75514152     0.02100
H3283       H  0.59761885  0.12195889  0.74062179     0.15000
H3284       H  0.65994141  0.14791648  0.77424739     0.15000
C3285       C  0.64085773  0.17637279  0.75397542     0.36700
C3286       C  0.61616955  0.09381779  0.76207670     0.36600
N3287       N  0.64584183  0.19321058  0.75312666    -0.43700
N3288       N  0.61086930  0.07714773  0.76378492    -0.43700
C3289       C  0.97617420  0.18670770  0.67843665    -0.00100
C3290       C  0.98674117  0.19212051  0.66070235    -0.11900
C3291       C  0.00800677  0.19200331  0.66012521     0.02200
C3292       C  0.01920511  0.18632884  0.67761444    -0.00200
C3293       C  0.00861736  0.17952697  0.69482864    -0.11900
C3294       C  0.98738962  0.17974707  0.69546801     0.02100
H3295       H  0.97838110  0.19716471  0.64739509     0.15000
H3296       H  0.01694689  0.17502330  0.70835177     0.15000
C3297       C  0.97780953  0.17398895  0.71435107     0.36700
C3298       C  0.01777620  0.19823856  0.64150555     0.36600
N3299       N  0.97029354  0.16942716  0.72957835    -0.43700
N3300       N  0.02548864  0.20324714  0.62652207    -0.43700
C3301       C  0.85174132  0.11647020  0.68571276    -0.00100
C3302       C  0.86259679  0.12032241  0.66771968    -0.11900
C3303       C  0.87715081  0.13584642  0.66680141     0.02200
C3304       C  0.88091268  0.14809517  0.68412213    -0.00200
C3305       C  0.87084778  0.14349429  0.70236069    -0.11900
C3306       C  0.85647095  0.12792870  0.70335125     0.02100
H3307       H  0.85937865  0.11149673  0.65413087     0.15000
H3308       H  0.87372049  0.15253380  0.71589003     0.15000
C3309       C  0.84630301  0.12481997  0.72255320     0.36700
C3310       C  0.88771977  0.13892854  0.64782671     0.36600
N3311       N  0.83819464  0.12238487  0.73796594    -0.43700
N3312       N  0.89626439  0.14134691  0.63264911    -0.43700
C3313       C  0.77060720  0.25905302  0.58392410    -0.00100
C3314       C  0.77333282  0.24158547  0.57193355    -0.11900
C3315       C  0.75916363  0.22581120  0.57189838     0.02200
C3316       C  0.74135221  0.22739803  0.58379449    -0.00200
C3317       C  0.73824867  0.24516379  0.59532382    -0.11900
C3318       C  0.75271298  0.26081624  0.59568769     0.02100
H3319       H  0.78694345  0.23992042  0.56281720     0.15000
H3320       H  0.72474410  0.24660418  0.60462904     0.15000
C3321       C  0.74897975  0.27804106  0.60881760     0.36700
C3322       C  0.76381647  0.20803659  0.55984597     0.36600
N3323       N  0.74592961  0.29172227  0.61948578    -0.43700
N3324       N  0.76776844  0.19379770  0.55027241    -0.43700
C3325       C  0.82398834  0.31255474  0.52377786    -0.00100
C3326       C  0.83967849  0.30274084  0.51316843    -0.11900
C3327       C  0.83965826  0.30172193  0.49187941     0.02200
C3328       C  0.82351592  0.31055768  0.48070134    -0.00200
C3329       C  0.80888908  0.32197677  0.49124338    -0.11900
C3330       C  0.80904536  0.32316680  0.51253269     0.02100
H3331       H  0.85157642  0.29497269  0.52153426     0.15000
H3332       H  0.79675700  0.32938839  0.48289577     0.15000
C3333       C  0.79340797  0.33505808  0.52229068     0.36700
C3334       C  0.85606505  0.29085932  0.48216967     0.36600
N3335       N  0.78089134  0.34468573  0.53002137    -0.43700
N3336       N  0.86929444  0.28217671  0.47450937    -0.43700
C3337       C  0.87932903  0.23739934  0.64581759    -0.00100
C3338       C  0.88693530  0.24383122  0.62690763    -0.11900
C3339       C  0.87562795  0.25670332  0.61415313     0.02200
C3340       C  0.85620429  0.26354603  0.62030035    -0.00200
C3341       C  0.84861117  0.25699602  0.63913763    -0.11900
C3342       C  0.85977421  0.24404027  0.65176869     0.02100
H3343       H  0.90186062  0.23886321  0.62205030     0.15000
H3344       H  0.83366696  0.26186104  0.64405342     0.15000
C3345       C  0.85035540  0.23757560  0.67050089     0.36700
C3346       C  0.88444084  0.26251337  0.59492492     0.36600
N3347       N  0.84261015  0.23243021  0.68542040    -0.43700
N3348       N  0.89158532  0.26707144  0.57951661    -0.43700
C3349       C  0.67060093  0.18961998  0.98327977    -0.00100
C3350       C  0.68567678  0.17937934  0.99437693    -0.11900
C3351       C  0.68581709  0.17952888  0.01568211     0.02200
C3352       C  0.67043137  0.18996697  0.02650717    -0.00200
C3353       C  0.65468203  0.19922231  0.01542329    -0.11900
C3354       C  0.65464236  0.19921624  0.99406881     0.02100
H3355       H  0.69800288  0.17190782  0.98639498     0.15000
H3356       H  0.64268263  0.20717081  0.02344570     0.15000
C3357       C  0.63838602  0.20982552  0.98380481     0.36700
C3358       C  0.70259567  0.16966685  0.02583303     0.36600
N3359       N  0.62538790  0.21838571  0.97560122    -0.43700
N3360       N  0.71609029  0.16185270  0.03397292    -0.43700
C3361       C  0.68143479  0.14793217  0.88581873    -0.00100
C3362       C  0.66284448  0.14194137  0.87718696    -0.11900
C3363       C  0.66200323  0.12743815  0.86155781     0.02200
C3364       C  0.68009014  0.11843684  0.85424793    -0.00200
C3365       C  0.69858841  0.12371677  0.86353662    -0.11900
C3366       C  0.69940202  0.13815533  0.87926509     0.02100
H3367       H  0.64891205  0.14927933  0.88201336     0.15000
H3368       H  0.71255254  0.11672770  0.85830503     0.15000
C3369       C  0.71887684  0.14251632  0.88840081     0.36700
C3370       C  0.64246753  0.12318456  0.85249067     0.36600
N3371       N  0.73446772  0.14592539  0.89580307    -0.43700
N3372       N  0.62680168  0.11985614  0.84521300    -0.43700
C3373       C  0.57872342  0.26327618  0.78020917    -0.00100
C3374       C  0.56503949  0.24697169  0.78162799    -0.11900
C3375       C  0.56460870  0.23148255  0.76695964     0.02200
C3376       C  0.57779051  0.23229849  0.74997114    -0.00200
C3377       C  0.59108076  0.24889536  0.74825537    -0.11900
C3378       C  0.59188881  0.26410024  0.76323323     0.02100
H3379       H  0.55492645  0.24597692  0.79459465     0.15000
H3380       H  0.60148122  0.24965616  0.73550591     0.15000
C3381       C  0.60724210  0.27960957  0.76127157     0.36700
C3382       C  0.55085027  0.21472598  0.77022963     0.36600
N3383       N  0.61970613  0.29189876  0.75980520    -0.43700
N3384       N  0.53994356  0.20123797  0.77300588    -0.43700
C3385       C  0.52316877  0.31726200  0.83938073    -0.00100
C3386       C  0.51276271  0.30659361  0.85466486    -0.11900
C3387       C  0.49150563  0.30661047  0.85554168     0.02200
C3388       C  0.48016942  0.31712110  0.84056569    -0.00200
C3389       C  0.49059175  0.32943011  0.82663947    -0.11900
C3390       C  0.51183077  0.32974302  0.82601937     0.02100
H3391       H  0.52120252  0.29751234  0.86553855     0.15000
H3392       H  0.48214401  0.33820253  0.81551750     0.15000
C3393       C  0.52136726  0.34265479  0.81111107     0.36700
C3394       C  0.48189414  0.29536603  0.87173464     0.36600
N3395       N  0.52883441  0.35315475  0.79917234    -0.43700
N3396       N  0.47426123  0.28648832  0.88483974    -0.43700
C3397       C  0.61917118  0.26337674  0.86375685    -0.00100
C3398       C  0.63810902  0.25743940  0.85588320    -0.11900
C3399       C  0.65087523  0.24417957  0.86659152     0.02200
C3400       C  0.64474349  0.23647984  0.88569875    -0.00200
C3401       C  0.62569215  0.24216276  0.89340130    -0.11900
C3402       C  0.61293583  0.25539824  0.88270336     0.02100
H3403       H  0.64307821  0.26325243  0.84128191     0.15000
H3404       H  0.62071174  0.23634274  0.90799615     0.15000
C3405       C  0.59344227  0.26013242  0.89151654     0.36700
C3406       C  0.66998576  0.23862824  0.85737958     0.36600
N3407       N  0.57781230  0.26381211  0.89863450    -0.43700
N3408       N  0.68527462  0.23419405  0.84994379    -0.43700
C3409       C  0.76048215  0.26891248  0.93119120    -0.00100
C3410       C  0.74238016  0.27222381  0.94194155    -0.11900
C3411       C  0.72674157  0.25787503  0.94177439     0.02200
C3412       C  0.72898518  0.23961574  0.93057065    -0.00200
C3413       C  0.74748576  0.23582069  0.92068731    -0.11900
C3414       C  0.76315393  0.25019961  0.92086582     0.02100
H3415       H  0.74017607  0.28633752  0.95020385     0.15000
H3416       H  0.74954948  0.22179632  0.91224010     0.15000
C3417       C  0.78150821  0.24540153  0.90987927     0.36700
C3418       C  0.70854814  0.26257677  0.95308932     0.36600
N3419       N  0.79619668  0.24152842  0.90105041    -0.43700
N3420       N  0.69398333  0.26637064  0.96215615    -0.43700
C3421       C  0.81484593  0.32513517  0.98824439    -0.00100
C3422       C  0.82471018  0.30923884  0.99854655    -0.11900
C3423       C  0.82526183  0.30854862  0.01985195     0.02200
C3424       C  0.81563528  0.32397283  0.03134194    -0.00200
C3425       C  0.80758268  0.34085522  0.02104529    -0.11900
C3426       C  0.80713580  0.34161019  0.99974868     0.02100
H3427       H  0.83122290  0.29674657  0.98997086     0.15000
H3428       H  0.80067063  0.35313454  0.02961884     0.15000
C3429       C  0.79809307  0.35923439  0.99030439     0.36700
C3430       C  0.83523231  0.29146043  0.02934514     0.36600
N3431       N  0.79085339  0.37342851  0.98286240    -0.43700
N3432       N  0.84328143  0.27777943  0.03691668    -0.43700
C3433       C  0.69325087  0.52027573  0.82957917    -0.00100
C3434       C  0.68541286  0.50918978  0.81304913    -0.11900
C3435       C  0.68530612  0.48790117  0.81304655     0.02200
C3436       C  0.69325640  0.47711610  0.82992653    -0.00200
C3437       C  0.69968160  0.48822849  0.84706966    -0.11900
C3438       C  0.69966134  0.50954440  0.84709654     0.02100
H3439       H  0.68009335  0.51715523  0.79961574     0.15000
H3440       H  0.70537179  0.48026246  0.86034726     0.15000
C3441       C  0.70648392  0.51987100  0.86528084     0.36700
C3442       C  0.67754778  0.47775000  0.79513543     0.36600
N3443       N  0.71187212  0.52806684  0.87993201    -0.43700
N3444       N  0.67128298  0.46975116  0.78072617    -0.43700
C3445       C  0.65231618  0.38335126  0.82961646    -0.00100
C3446       C  0.64629977  0.37520069  0.84842119    -0.11900
C3447       C  0.63064131  0.36076210  0.84962549     0.02200
C3448       C  0.62058554  0.35420631  0.83167496    -0.00200
C3449       C  0.62565535  0.36353331  0.81314678    -0.11900
C3450       C  0.64123736  0.37794405  0.81197389     0.02100
H3451       H  0.65447490  0.37939632  0.86215086     0.15000
H3452       H  0.61781395  0.35912304  0.79929220     0.15000
C3453       C  0.64553726  0.38682676  0.79237359     0.36700
C3454       C  0.62593803  0.35243190  0.86938158     0.36600
N3455       N  0.64894516  0.39397945  0.77667119    -0.43700
N3456       N  0.62223382  0.34582870  0.88526230    -0.43700
C3457       C  0.74223840  0.37921443  0.86445679    -0.00100
C3458       C  0.75258810  0.38802439  0.88100404    -0.11900
C3459       C  0.76506004  0.37634875  0.89380081     0.02200
C3460       C  0.76725955  0.35523621  0.89027933    -0.00200
C3461       C  0.75708325  0.34651269  0.87360475    -0.11900
C3462       C  0.74473985  0.35814871  0.86077125     0.02100
H3463       H  0.75103984  0.40417145  0.88394045     0.15000
H3464       H  0.75862387  0.33037747  0.87057876     0.15000
C3465       C  0.73472281  0.34779485  0.84413932     0.36700
C3466       C  0.77545607  0.38658333  0.91025078     0.36600
N3467       N  0.72674239  0.33942188  0.83083754    -0.43700
N3468       N  0.78380543  0.39485070  0.92338900    -0.43700
C3469       C  0.92053890  0.26866819  0.76478280    -0.00100
C3470       C  0.93390277  0.27104267  0.74832700    -0.11900
C3471       C  0.93443158  0.25695584  0.73236243     0.02200
C3472       C  0.92112272  0.24010897  0.73248401    -0.00200
C3473       C  0.90848954  0.23718487  0.74943541    -0.11900
C3474       C  0.90812024  0.25117247  0.76552241     0.02100
H3475       H  0.94387229  0.28413932  0.74776040     0.15000
H3476       H  0.89839405  0.22418511  0.74991453     0.15000
C3477       C  0.89429496  0.24743876  0.78212683     0.36700
C3478       C  0.94886116  0.26026424  0.71618417     0.36600
N3479       N  0.88322641  0.24441202  0.79543495    -0.43700
N3480       N  0.96049180  0.26289173  0.70327855    -0.43700
C3481       C  0.97696081  0.32225991  0.82005403    -0.00100
C3482       C  0.98692136  0.33997917  0.81355658    -0.11900
C3483       C  0.00814379  0.34111099  0.81308743     0.02200
C3484       C  0.01989755  0.32422010  0.81921747    -0.00200
C3485       C  0.00997369  0.30718519  0.82731415    -0.11900
C3486       C  0.98877437  0.30600597  0.82773943     0.02100
H3487       H  0.97812985  0.35276042  0.80799961     0.15000
H3488       H  0.01877542  0.29420965  0.83239467     0.15000
C3489       C  0.97978660  0.28750003  0.83530953     0.36700
C3490       C  0.01733838  0.35961458  0.80576705     0.36600
N3491       N  0.97268691  0.27261104  0.84134982    -0.43700
N3492       N  0.02474683  0.37443000  0.79992122    -0.43700
C3493       C  0.88161207  0.31641420  0.85918159    -0.00100
C3494       C  0.87710509  0.29802168  0.86905137    -0.11900
C3495       C  0.86286073  0.29723010  0.88487822     0.02200
C3496       C  0.85271950  0.31515752  0.89104698    -0.00200
C3497       C  0.85799097  0.33363609  0.88184142    -0.11900
C3498       C  0.87215987  0.33444249  0.86607499     0.02100
H3499       H  0.88444499  0.28410446  0.86412728     0.15000
H3500       H  0.85034045  0.34752950  0.88634720     0.15000
C3501       C  0.87564254  0.35389486  0.85658248     0.36700
C3502       C  0.85898101  0.27782682  0.89433448     0.36600
N3503       N  0.87829971  0.36953948  0.84903925    -0.43700
N3504       N  0.85600987  0.26223494  0.90187934    -0.43700
C3505       C  0.77643721  0.41981609  0.74698827    -0.00100
C3506       C  0.76079782  0.40532887  0.74632811    -0.11900
C3507       C  0.74627878  0.40413419  0.76184264     0.02200
C3508       C  0.74699712  0.41788846  0.77840054    -0.00200
C3509       C  0.76238276  0.43266236  0.77883472    -0.11900
C3510       C  0.77699155  0.43376722  0.76340429     0.02100
H3511       H  0.76029461  0.39436497  0.73398547     0.15000
H3512       H  0.76306025  0.44343298  0.79134065     0.15000
C3513       C  0.79219636  0.44951700  0.76483407     0.36700
C3514       C  0.73154880  0.38792882  0.76083242     0.36600
N3515       N  0.80433919  0.46216795  0.76603087    -0.43700
N3516       N  0.71983209  0.37485397  0.76008239    -0.43700
C3517       C  0.83274331  0.47588876  0.69220772    -0.00100
C3518       C  0.81989334  0.48627044  0.67862141    -0.11900
C3519       C  0.81995976  0.50758221  0.67746736     0.02200
C3520       C  0.83285290  0.51901963  0.69037817    -0.00200
C3521       C  0.84678246  0.50856000  0.70275296    -0.11900
C3522       C  0.84689480  0.48729516  0.70375067     0.02100
H3523       H  0.80933531  0.47774499  0.66923070     0.15000
H3524       H  0.85702060  0.51703262  0.71254240     0.15000
C3525       C  0.86088750  0.47780789  0.71777075     0.36700
C3526       C  0.80650142  0.51722270  0.66304392     0.36600
N3527       N  0.87207461  0.47019051  0.72902173    -0.43700
N3528       N  0.79581401  0.52494451  0.65138345    -0.43700
C3529       C  0.82254766  0.38296674  0.64991738    -0.00100
C3530       C  0.80393289  0.37874842  0.64030072    -0.11900
C3531       C  0.80262500  0.36451084  0.62445125     0.02200
C3532       C  0.82021212  0.35395113  0.61810304    -0.00200
C3533       C  0.83904326  0.35953415  0.62643607    -0.11900
C3534       C  0.84039071  0.37382232  0.64217796     0.02100
H3535       H  0.79018846  0.38609683  0.64562546     0.15000
H3536       H  0.85274714  0.35185933  0.62147202     0.15000
C3537       C  0.86019162  0.37761306  0.65084898     0.36700
C3538       C  0.78298557  0.36081835  0.61535741     0.36600
N3539       N  0.87611938  0.38050791  0.65772537    -0.43700
N3540       N  0.76725477  0.35792944  0.60802854    -0.43700
C3541       C  0.85739132  0.37665459  0.74137869    -0.00100
C3542       C  0.87826146  0.38045002  0.74358356    -0.11900
C3543       C  0.89035147  0.36879595  0.75671852     0.02200
C3544       C  0.88156980  0.35296650  0.76826220    -0.00200
C3545       C  0.86073034  0.34904392  0.76595416    -0.11900
C3546       C  0.84863879  0.36064114  0.75275676     0.02100
H3547       H  0.88526982  0.39252458  0.73486703     0.15000
H3548       H  0.85374860  0.33694184  0.77465962     0.15000
C3549       C  0.82724273  0.35596620  0.75170490     0.36700
C3550       C  0.91182756  0.37308471  0.75745039     0.36600
N3551       N  0.81010799  0.35216265  0.75094526    -0.43700
N3552       N  0.92905318  0.37648118  0.75794885    -0.43700
loop_ 
_geom_bond_atom_site_label_1 
_geom_bond_atom_site_label_2 
_geom_bond_distance 
_geom_bond_site_symmetry_2 
_ccdc_geom_bond_type 
In1           O3   2.247       .  S
In1           O4   2.257       .  S
In1          O12   2.243       .  S
In1           O6   2.250       .  S
In1           O8   2.252       .  S
In1           O9   2.243       .  S
In1          O10   2.238       .  S
In1          O13   2.257       .  S
C2            O8   1.263       .  A
C2           O10   1.260       .  A
C2         C3505   1.486       .  S
O3           C11   1.259       .  A
O4           C11   1.263       .  A
C5           O12   1.260       .  A
C5            O6   1.261       .  A
C5         C3529   1.486       .  S
C7            O9   1.261       .  A
C7           O13   1.262       .  A
C7         C3517   1.490       .  S
C11        C3541   1.490       .  S
In14         O16   2.250       .  S
In14         O17   2.247       .  S
In14         O25   2.242       .  S
In14         O19   2.249       .  S
In14         O21   2.242       .  S
In14         O22   2.250       .  S
In14         O23   2.234       .  S
In14         O26   2.241       .  S
C15          O21   1.261       .  A
C15          O23   1.260       .  A
C15        C3469   1.483       .  S
O16          C24   1.261       .  A
O17          C24   1.262       .  A
C18          O25   1.260       .  A
C18          O19   1.260       .  A
C18        C3493   1.485       .  S
C20          O22   1.261       .  A
C20          O26   1.259       .  A
C20        C3481   1.487       .  S
C24        C3544   1.488       .  S
In27         O29   2.240       .  S
In27         O30   2.256       .  S
In27         O38   2.263       .  S
In27         O32   2.238       .  S
In27         O34   2.249       .  S
In27         O35   2.262       .  S
In27         O36   2.246       .  S
In27         O39   2.231       .  S
C28          O34   1.262       .  A
C28          O36   1.261       .  A
C28        C3508   1.487       .  S
O29          C37   1.259       .  A
O30          C37   1.263       .  A
C31          O38   1.262       .  A
C31          O32   1.261       .  A
C31        C3445   1.489       .  S
C33          O35   1.264       .  A
C33          O39   1.259       .  A
C33        C3457   1.489       .  S
C37        C3436   1.491       .  S
In40         O42   2.251       .  S
In40         O43   2.244       .  S
In40         O51   2.234       .  S
In40         O45   2.251       .  S
In40         O47   2.239       .  S
In40         O48   2.256       .  S
In40         O49   2.241       .  S
In40         O52   2.240       .  S
C41          O47   1.260       .  A
C41          O49   1.261       .  A
C41        C3409   1.485       .  S
O42          C50   1.261       .  A
O43          C50   1.259       .  A
C44          O51   1.260       .  A
C44          O45   1.260       .  A
C44        C3496   1.484       .  S
C46          O48   1.261       .  A
C46          O52   1.260       .  A
C46        C3460   1.489       .  S
C50        C3421   1.487       .  S
In53         O55   2.239       .  S
In53         O56   2.247       .  S
In53         O64   2.259       .  S
In53         O58   2.248       .  S
In53         O60   2.251       .  S
In53         O61   2.251       .  S
In53         O62   2.247       .  S
In53         O65   2.250       .  S
C54          O60   1.262       .  A
C54          O62   1.261       .  A
C54        C3373   1.490       .  S
O55          C63   1.260       .  A
O56          C63   1.262       .  A
C57          O64   1.260       .  A
C57          O58   1.261       .  A
C57        C3448   1.492       .  S
C59          O61   1.261       .  A
C59          O65   1.260       .  A
C59        C3385   1.489       .  S
C63        C3397   1.486       .  S
In66         O68   2.245       .  S
In66         O69   2.238       .  S
In66         O77   2.251       .  S
In66         O71   2.247       .  S
In66         O73   2.254       .  S
In66         O74   2.239       .  S
In66         O75   2.225       .  S
In66         O78   2.252       .  S
C67          O73   1.263       .  A
C67          O75   1.258       .  A
C67        C3412   1.484       .  S
O68          C76   1.260       .  A
O69          C76   1.261       .  A
C70          O77   1.261       .  A
C70          O71   1.260       .  A
C70        C3361   1.488       .  S
C72          O74   1.258       .  A
C72          O78   1.262       .  A
C72        C3349   1.488       .  S
C76        C3400   1.485       .  S
In79         O81   2.242       .  S
In79         O82   2.243       .  S
In79         O90   2.242       .  S
In79         O84   2.245       .  S
In79         O86   2.259       .  S
In79         O87   2.256       .  S
In79         O88   2.235       .  S
In79         O91   2.230       .  S
C80          O86   1.262       .  A
C80          O88   1.261       .  A
C80        C3340   1.490       .  S
O81          C89   1.260       .  A
O82          C89   1.259       .  A
C83          O90   1.259       .  A
C83          O84   1.261       .  A
C83        C3325   1.485       .  S
C85          O87   1.261       .  A
C85          O91   1.261       .  A
C85        C3313   1.487       .  S
C89        C3532   1.484       .  S
In92         O94   2.240       .  S
In92         O95   2.251       .  S
In92        O103   2.253       .  S
In92         O97   2.231       .  S
In92         O99   2.242       .  S
In92        O100   2.264       .  S
In92        O101   2.237       .  S
In92        O104   2.237       .  S
C93          O99   1.261       .  A
C93         O101   1.260       .  A
C93        C3472   1.484       .  S
O94         C102   1.259       .  A
O95         C102   1.262       .  A
C96         O103   1.261       .  A
C96          O97   1.259       .  A
C96        C3304   1.486       .  S
C98         O100   1.263       .  A
C98         O104   1.259       .  A
C98        C3337   1.490       .  S
C102       C3289   1.487       .  S
In105       O107   2.247       .  S
In105       O108   2.246       .  S
In105       O116   2.256       .  S
In105       O110   2.254       .  S
In105       O112   2.259       .  S
In105       O113   2.252       .  S
In105       O114   2.238       .  S
In105       O117   2.228       .  S
C106        O112   1.263       .  A
C106        O114   1.259       .  A
C106       C3376   1.490       .  S
O107        C115   1.262       .  A
O108        C115   1.260       .  A
C109        O116   1.261       .  A
C109        O110   1.261       .  A
C109       C3265   1.493       .  S
C111        O113   1.263       .  A
C111        O117   1.259       .  A
C111       C3277   1.486       .  S
C115       C3253   1.489       .  S
In118       O120   2.252       .  S
In118       O121   2.254       .  S
In118       O129   2.247       .  S
In118       O123   2.251       .  S
In118       O125   2.253       .  S
In118       O126   2.241       .  S
In118       O127   2.232       .  S
In118       O130   2.239       .  S
C119        O125   1.262       .  A
C119        O127   1.258       .  A
C119       C3229   1.482       .  S
O120        C128   1.260       .  A
O121        C128   1.260       .  A
C122        O129   1.261       .  A
C122        O123   1.261       .  A
C122       C3364   1.487       .  S
C124        O126   1.262       .  A
C124        O130   1.262       .  A
C124       C3280   1.484       .  S
C128       C3241   1.493       .  S
In131       O133   2.241       .  S
In131       O134   2.254       .  S
In131       O142   2.256       .  S
In131       O136   2.245       .  S
In131       O138   2.255       .  S
In131       O139   2.245       .  S
In131       O140   2.230       .  S
In131       O143   2.254       .  S
C132        O138   1.263       .  A
C132        O140   1.260       .  A
C132       C3316   1.487       .  S
O133        C141   1.259       .  A
O134        C141   1.261       .  A
C135        O142   1.260       .  A
C135        O136   1.260       .  A
C135       C3268   1.489       .  S
C137        O139   1.260       .  A
C137        O143   1.260       .  A
C137       C3205   1.489       .  S
C141       C3217   1.484       .  S
In144       O146   2.229       .  S
In144       O147   2.249       .  S
In144       O155   2.253       .  S
In144       O149   2.229       .  S
In144       O151   2.246       .  S
In144       O152   2.251       .  S
In144       O153   2.241       .  S
In144       O156   2.242       .  S
C145        O151   1.261       .  A
C145        O153   1.260       .  A
C145       C3232   1.485       .  S
O146        C154   1.259       .  A
O147        C154   1.263       .  A
C148        O155   1.262       .  A
C148        O149   1.260       .  A
C148       C3301   1.486       .  S
C150        O152   1.260       .  A
C150        O156   1.259       .  A
C150       C3196   1.485       .  S
C154       C3220   1.481       .  S
In157       O159   2.259       .  S
In157       O160   2.233       .  S
In157       O168   2.243       .  S
In157       O162   2.246       .  S
In157       O164   2.253       .  S
In157       O165   2.257       .  S
In157       O166   2.232       .  S
In157       O169   2.224       .  S
C158        O164   1.262       .  A
C158        O166   1.260       .  A
C158       C3145   1.485       .  S
O159        C167   1.261       .  A
O160        C167   1.258       .  A
C161        O168   1.260       .  A
C161        O162   1.260       .  A
C161       C3172   1.484       .  S
C163        O165   1.262       .  A
C163        O169   1.259       .  A
C163       C3181   1.483       .  S
C167       C3157   1.487       .  S
In170       O172   2.237       .  S
In170       O173   2.256       .  S
In170       O181   2.273       .  S
In170       O175   2.237       .  S
In170       O177   2.255       .  S
In170       O178   2.254       .  S
In170       O179   2.256       .  S
In170       O182   2.230       .  S
C171        O177   1.260       .  A
C171        O179   1.260       .  A
C171       C3112   1.491       .  S
O172        C180   1.260       .  A
O173        C180   1.261       .  A
C174        O181   1.262       .  A
C174        O175   1.260       .  A
C174       C3133   1.492       .  S
C176        O178   1.260       .  A
C176        O182   1.259       .  A
C176       C3184   1.481       .  S
C180       C3121   1.488       .  S
In183       O185   2.233       .  S
In183       O186   2.246       .  S
In183       O194   2.239       .  S
In183       O188   2.253       .  S
In183       O190   2.246       .  S
In183       O191   2.246       .  S
In183       O192   2.232       .  S
In183       O195   2.243       .  S
C184        O190   1.262       .  A
C184        O192   1.260       .  A
C184       C3085   1.480       .  S
O185        C193   1.260       .  A
O186        C193   1.262       .  A
C187        O194   1.258       .  A
C187        O188   1.261       .  A
C187       C3169   1.486       .  S
C189        O191   1.260       .  A
C189        O195   1.261       .  A
C189       C3292   1.486       .  S
C193       C3097   1.482       .  S
In196       O198   2.230       .  S
In196       O199   2.250       .  S
In196       O207   2.266       .  S
In196       O201   2.227       .  S
In196       O203   2.260       .  S
In196       O204   2.240       .  S
In196       O205   2.246       .  S
In196       O208   2.246       .  S
C197        O203   1.261       .  A
C197        O205   1.259       .  A
C197       C3109   1.489       .  S
O198        C206   1.260       .  A
O199        C206   1.261       .  A
C200        O207   1.262       .  A
C200        O201   1.260       .  A
C200       C3073   1.490       .  S
C202        O204   1.261       .  A
C202        O208   1.260       .  A
C202       C3064   1.487       .  S
C206       C3100   1.482       .  S
In209       O211   2.235       .  S
In209       O212   2.243       .  S
In209       O220   2.239       .  S
In209       O214   2.255       .  S
In209       O216   2.268       .  S
In209       O217   2.241       .  S
In209       O218   2.223       .  S
In209       O221   2.252       .  S
C210        O216   1.263       .  A
C210        O218   1.257       .  A
C210       C3013   1.488       .  S
O211        C219   1.261       .  A
O212        C219   1.262       .  A
C213        O220   1.260       .  A
C213        O214   1.262       .  A
C213       C3037   1.483       .  S
C215        O217   1.258       .  A
C215        O221   1.261       .  A
C215       C3025   1.487       .  S
C219       C3049   1.486       .  S
In222       O224   2.229       .  S
In222       O225   2.249       .  S
In222       O233   2.242       .  S
In222       O227   2.239       .  S
In222       O229   2.244       .  S
In222       O230   2.230       .  S
In222       O231   2.234       .  S
In222       O234   2.242       .  S
C223        O229   1.262       .  A
C223        O231   1.260       .  A
C223       C2977   1.484       .  S
O224        C232   1.260       .  A
O225        C232   1.261       .  A
C226        O233   1.260       .  A
C226        O227   1.259       .  A
C226       C3004   1.484       .  S
C228        O230   1.260       .  A
C228        O234   1.261       .  A
C228       C2989   1.481       .  S
C232       C3052   1.485       .  S
In235       O237   2.255       .  S
In235       O238   2.246       .  S
In235       O246   2.266       .  S
In235       O240   2.229       .  S
In235       O242   2.256       .  S
In235       O243   2.268       .  S
In235       O244   2.243       .  S
In235       O247   2.238       .  S
C236        O242   1.260       .  A
C236        O244   1.261       .  A
C236       C3016   1.489       .  S
O237        C245   1.261       .  A
O238        C245   1.261       .  A
C239        O246   1.262       .  A
C239        O240   1.260       .  A
C239       C3076   1.489       .  S
C241        O243   1.263       .  A
C241        O247   1.258       .  A
C241       C2965   1.492       .  S
C245       C2953   1.491       .  S
In248       O250   2.239       .  S
In248       O251   2.239       .  S
In248       O259   2.243       .  S
In248       O253   2.237       .  S
In248       O255   2.243       .  S
In248       O256   2.250       .  S
In248       O257   2.240       .  S
In248       O260   2.244       .  S
C249        O255   1.260       .  A
C249        O257   1.260       .  A
C249       C3088   1.482       .  S
O250        C258   1.260       .  A
O251        C258   1.261       .  A
C252        O259   1.259       .  A
C252        O253   1.260       .  A
C252       C3001   1.484       .  S
C254        O256   1.262       .  A
C254        O260   1.261       .  A
C254       C2968   1.491       .  S
C258       C3484   1.484       .  S
In261       O263   2.248       .  S
In261       O264   2.242       .  S
In261       O272   2.236       .  S
In261       O266   2.243       .  S
In261       O268   2.253       .  S
In261       O269   2.250       .  S
In261       O270   2.229       .  S
In261       O273   2.230       .  S
C262        O268   1.261       .  A
C262        O270   1.260       .  A
C262       C2929   1.484       .  S
O263        C271   1.261       .  A
O264        C271   1.259       .  A
C265        O272   1.261       .  A
C265        O266   1.260       .  A
C265       C3040   1.482       .  S
C267        O269   1.263       .  A
C267        O273   1.258       .  A
C267       C2941   1.482       .  S
C271       C3388   1.487       .  S
In274       O276   2.241       .  S
In274       O277   2.250       .  S
In274       O285   2.245       .  S
In274       O279   2.237       .  S
In274       O281   2.246       .  S
In274       O282   2.239       .  S
In274       O283   2.250       .  S
In274       O286   2.244       .  S
C275        O281   1.259       .  A
C275        O283   1.259       .  A
C275       C2980   1.485       .  S
O276        C284   1.259       .  A
O277        C284   1.260       .  A
C278        O285   1.261       .  A
C278        O279   1.259       .  A
C278       C2917   1.485       .  S
C280        O282   1.260       .  A
C280        O286   1.261       .  A
C280       C2944   1.480       .  S
C284       C2905   1.487       .  S
In287       O289   2.226       .  S
In287       O290   2.256       .  S
In287       O298   2.261       .  S
In287       O292   2.233       .  S
In287       O294   2.259       .  S
In287       O295   2.249       .  S
In287       O296   2.230       .  S
In287       O299   2.241       .  S
C288        O294   1.262       .  A
C288        O296   1.259       .  A
C288       C2932   1.485       .  S
O289        C297   1.261       .  A
O290        C297   1.263       .  A
C291        O298   1.262       .  A
C291        O292   1.259       .  A
C291       C3136   1.489       .  S
C293        O295   1.261       .  A
C293        O299   1.259       .  A
C293       C3256   1.488       .  S
C297       C2893   1.488       .  S
In300       O302   2.231       .  S
In300       O303   2.265       .  S
In300       O311   2.239       .  S
In300       O305   2.243       .  S
In300       O307   2.254       .  S
In300       O308   2.250       .  S
In300       O309   2.228       .  S
In300       O312   2.247       .  S
C301        O307   1.262       .  A
C301        O309   1.260       .  A
C301       C3148   1.486       .  S
O302        C310   1.259       .  A
O303        C310   1.263       .  A
C304        O311   1.260       .  A
C304        O305   1.261       .  A
C304       C2920   1.485       .  S
C306        O308   1.262       .  A
C306        O312   1.260       .  A
C306       C2884   1.491       .  S
C310       C2896   1.490       .  S
In313       O315   2.239       .  S
In313       O316   2.250       .  S
In313       O324   2.263       .  S
In313       O318   2.247       .  S
In313       O320   2.243       .  S
In313       O321   2.230       .  S
In313       O322   2.245       .  S
In313       O325   2.258       .  S
C314        O320   1.261       .  A
C314        O322   1.261       .  A
C314       C2833   1.487       .  S
O315        C323   1.261       .  A
O316        C323   1.261       .  A
C317        O324   1.260       .  A
C317        O318   1.259       .  A
C317       C2857   1.491       .  S
C319        O321   1.258       .  A
C319        O325   1.262       .  A
C319       C2869   1.482       .  S
C323       C2845   1.485       .  S
In326       O328   2.234       .  S
In326       O329   2.253       .  S
In326       O337   2.244       .  S
In326       O331   2.252       .  S
In326       O333   2.257       .  S
In326       O334   2.249       .  S
In326       O335   2.245       .  S
In326       O338   2.232       .  S
C327        O333   1.262       .  A
C327        O335   1.259       .  A
C327       C2809   1.491       .  S
O328        C336   1.258       .  A
O329        C336   1.261       .  A
C330        O337   1.259       .  A
C330        O331   1.262       .  A
C330       C2824   1.489       .  S
C332        O334   1.262       .  A
C332        O338   1.262       .  A
C332       C2872   1.483       .  S
C336       C3193   1.485       .  S
In339       O341   2.250       .  S
In339       O342   2.255       .  S
In339       O350   2.255       .  S
In339       O344   2.252       .  S
In339       O346   2.239       .  S
In339       O347   2.252       .  S
In339       O348   2.246       .  S
In339       O351   2.249       .  S
C340        O346   1.260       .  A
C340        O348   1.262       .  A
C340       C2836   1.485       .  S
O341        C349   1.260       .  A
O342        C349   1.262       .  A
C343        O350   1.260       .  A
C343        O344   1.259       .  A
C343       C2785   1.490       .  S
C345        O347   1.261       .  A
C345        O351   1.260       .  A
C345       C2773   1.489       .  S
C349       C2800   1.490       .  S
In352       O354   2.247       .  S
In352       O355   2.260       .  S
In352       O363   2.248       .  S
In352       O357   2.237       .  S
In352       O359   2.255       .  S
In352       O360   2.247       .  S
In352       O361   2.240       .  S
In352       O364   2.255       .  S
C353        O359   1.260       .  A
C353        O361   1.260       .  A
C353       C2749   1.487       .  S
O354        C362   1.260       .  A
O355        C362   1.262       .  A
C356        O363   1.262       .  A
C356        O357   1.260       .  A
C356       C2821   1.485       .  S
C358        O360   1.261       .  A
C358        O364   1.260       .  A
C358       C2761   1.490       .  S
C362       C2797   1.489       .  S
In365       O367   2.241       .  S
In365       O368   2.253       .  S
In365       O376   2.260       .  S
In365       O370   2.243       .  S
In365       O372   2.259       .  S
In365       O373   2.244       .  S
In365       O374   2.238       .  S
In365       O377   2.253       .  S
C366        O372   1.262       .  A
C366        O374   1.259       .  A
C366       C2713   1.488       .  S
O367        C375   1.259       .  A
O368        C375   1.262       .  A
C369        O376   1.262       .  A
C369        O370   1.259       .  A
C369       C2860   1.491       .  S
C371        O373   1.259       .  A
C371        O377   1.262       .  A
C371       C2725   1.490       .  S
C375       C2737   1.488       .  S
In378       O380   2.237       .  S
In378       O381   2.255       .  S
In378       O389   2.281       .  S
In378       O383   2.238       .  S
In378       O385   2.254       .  S
In378       O386   2.255       .  S
In378       O387   2.239       .  S
In378       O390   2.260       .  S
C379        O385   1.262       .  A
C379        O387   1.261       .  A
C379       C2812   1.489       .  S
O380        C388   1.260       .  A
O381        C388   1.263       .  A
C382        O389   1.262       .  A
C382        O383   1.259       .  A
C382       C2701   1.495       .  S
C384        O386   1.260       .  A
C384        O390   1.261       .  A
C384       C3244   1.494       .  S
C388       C2740   1.488       .  S
In391       O393   2.262       .  S
In391       O394   2.249       .  S
In391       O402   2.266       .  S
In391       O396   2.238       .  S
In391       O398   2.252       .  S
In391       O399   2.263       .  S
In391       O400   2.245       .  S
In391       O403   2.247       .  S
C392        O398   1.260       .  A
C392        O400   1.260       .  A
C392       C2716   1.484       .  S
O393        C401   1.261       .  A
O394        C401   1.259       .  A
C395        O402   1.262       .  A
C395        O396   1.257       .  A
C395       C2677   1.490       .  S
C397        O399   1.262       .  A
C397        O403   1.259       .  A
C397       C2689   1.491       .  S
C401       C2665   1.493       .  S
In404       O406   2.262       .  S
In404       O407   2.252       .  S
In404       O415   2.266       .  S
In404       O409   2.243       .  S
In404       O411   2.264       .  S
In404       O412   2.260       .  S
In404       O413   2.232       .  S
In404       O416   2.245       .  S
C405        O411   1.263       .  A
C405        O413   1.259       .  A
C405       C2641   1.489       .  S
O406        C414   1.261       .  A
O407        C414   1.261       .  A
C408        O415   1.261       .  A
C408        O409   1.261       .  A
C408       C2704   1.494       .  S
C410        O412   1.262       .  A
C410        O416   1.260       .  A
C410       C2692   1.492       .  S
C414       C2653   1.495       .  S
In417       O419   2.256       .  S
In417       O420   2.257       .  S
In417       O428   2.257       .  S
In417       O422   2.235       .  S
In417       O424   2.244       .  S
In417       O425   2.251       .  S
In417       O426   2.240       .  S
In417       O429   2.253       .  S
C418        O424   1.259       .  A
C418        O426   1.261       .  A
C418       C2617   1.482       .  S
O419        C427   1.259       .  A
O420        C427   1.260       .  A
C421        O428   1.261       .  A
C421        O422   1.258       .  A
C421       C2680   1.487       .  S
C423        O425   1.259       .  A
C423        O429   1.261       .  A
C423       C3433   1.489       .  S
C427       C2629   1.489       .  S
In430       O432   2.250       .  S
In430       O433   2.254       .  S
In430       O441   2.257       .  S
In430       O435   2.258       .  S
In430       O437   2.258       .  S
In430       O438   2.261       .  S
In430       O439   2.239       .  S
In430       O442   2.256       .  S
C431        O437   1.262       .  A
C431        O439   1.261       .  A
C431       C2644   1.488       .  S
O432        C440   1.259       .  A
O433        C440   1.262       .  A
C434        O441   1.261       .  A
C434        O435   1.261       .  A
C434       C2605   1.494       .  S
C436        O438   1.259       .  A
C436        O442   1.261       .  A
C436       C2593   1.494       .  S
C440       C2632   1.491       .  S
In443       O445   2.261       .  S
In443       O446   2.252       .  S
In443       O454   2.258       .  S
In443       O448   2.237       .  S
In443       O450   2.250       .  S
In443       O451   2.259       .  S
In443       O452   2.236       .  S
In443       O455   2.240       .  S
C444        O450   1.261       .  A
C444        O452   1.260       .  A
C444       C2620   1.484       .  S
O445        C453   1.260       .  A
O446        C453   1.260       .  A
C447        O454   1.261       .  A
C447        O448   1.259       .  A
C447       C2788   1.489       .  S
C449        O451   1.261       .  A
C449        O455   1.260       .  A
C449       C2581   1.489       .  S
C453       C3520   1.491       .  S
In456       O458   2.254       .  S
In456       O459   2.250       .  S
In456       O467   2.259       .  S
In456       O461   2.254       .  S
In456       O463   2.257       .  S
In456       O464   2.258       .  S
In456       O465   2.238       .  S
In456       O468   2.237       .  S
C457        O463   1.262       .  A
C457        O465   1.259       .  A
C457       C2752   1.489       .  S
O458        C466   1.260       .  A
O459        C466   1.260       .  A
C460        O467   1.260       .  A
C460        O461   1.261       .  A
C460       C2608   1.493       .  S
C462        O464   1.262       .  A
C462        O468   1.260       .  A
C462       C2584   1.485       .  S
C466       C2569   1.490       .  S
In469       O471   2.233       .  S
In469       O472   2.257       .  S
In469       O480   2.257       .  S
In469       O474   2.236       .  S
In469       O476   2.240       .  S
In469       O477   2.262       .  S
In469       O478   2.240       .  S
In469       O481   2.238       .  S
C470        O476   1.262       .  A
C470        O478   1.260       .  A
C470       C2533   1.486       .  S
O471        C479   1.260       .  A
O472        C479   1.264       .  A
C473        O480   1.262       .  A
C473        O474   1.260       .  A
C473       C2545   1.489       .  S
C475        O477   1.263       .  A
C475        O481   1.259       .  A
C475       C2668   1.490       .  S
C479       C2557   1.487       .  S
In482       O484   2.227       .  S
In482       O485   2.247       .  S
In482       O493   2.254       .  S
In482       O487   2.228       .  S
In482       O489   2.247       .  S
In482       O490   2.253       .  S
In482       O491   2.227       .  S
In482       O494   2.228       .  S
C483        O489   1.262       .  A
C483        O491   1.261       .  A
C483       C2497   1.484       .  S
O484        C492   1.260       .  A
O485        C492   1.263       .  A
C486        O493   1.261       .  A
C486        O487   1.259       .  A
C486       C2521   1.486       .  S
C488        O490   1.261       .  A
C488        O494   1.258       .  A
C488       C2509   1.480       .  S
C492       C2560   1.486       .  S
In495       O497   2.242       .  S
In495       O498   2.262       .  S
In495       O506   2.246       .  S
In495       O500   2.249       .  S
In495       O502   2.250       .  S
In495       O503   2.243       .  S
In495       O504   2.247       .  S
In495       O507   2.244       .  S
C496        O502   1.260       .  A
C496        O504   1.259       .  A
C496       C2536   1.488       .  S
O497        C505   1.259       .  A
O498        C505   1.261       .  A
C499        O506   1.261       .  A
C499        O500   1.261       .  A
C499       C2473   1.490       .  S
C501        O503   1.262       .  A
C501        O507   1.260       .  A
C501       C2488   1.481       .  S
C505       C2728   1.491       .  S
In508       O510   2.253       .  S
In508       O511   2.252       .  S
In508       O519   2.256       .  S
In508       O513   2.231       .  S
In508       O515   2.243       .  S
In508       O516   2.237       .  S
In508       O517   2.237       .  S
In508       O520   2.251       .  S
C509        O515   1.262       .  A
C509        O517   1.262       .  A
C509       C2461   1.485       .  S
O510        C518   1.260       .  A
O511        C518   1.261       .  A
C512        O519   1.261       .  A
C512        O513   1.260       .  A
C512       C2524   1.487       .  S
C514        O516   1.259       .  A
C514        O520   1.264       .  A
C514       C2485   1.485       .  S
C518       C2881   1.490       .  S
In521       O523   2.237       .  S
In521       O524   2.265       .  S
In521       O532   2.254       .  S
In521       O526   2.243       .  S
In521       O528   2.246       .  S
In521       O529   2.265       .  S
In521       O530   2.231       .  S
In521       O533   2.247       .  S
C522        O528   1.261       .  A
C522        O530   1.259       .  A
C522       C2425   1.481       .  S
O523        C531   1.258       .  A
O524        C531   1.263       .  A
C525        O532   1.263       .  A
C525        O526   1.258       .  A
C525       C2476   1.488       .  S
C527        O529   1.261       .  A
C527        O533   1.261       .  A
C527       C2437   1.494       .  S
C531       C2449   1.487       .  S
In534       O536   2.245       .  S
In534       O537   2.251       .  S
In534       O545   2.257       .  S
In534       O539   2.245       .  S
In534       O541   2.259       .  S
In534       O542   2.240       .  S
In534       O543   2.235       .  S
In534       O546   2.255       .  S
C535        O541   1.262       .  A
C535        O543   1.259       .  A
C535       C2464   1.488       .  S
O536        C544   1.261       .  A
O537        C544   1.261       .  A
C538        O545   1.260       .  A
C538        O539   1.260       .  A
C538       C2413   1.489       .  S
C540        O542   1.260       .  A
C540        O546   1.260       .  A
C540       C3160   1.486       .  S
C544       C2452   1.488       .  S
In547       O549   2.257       .  S
In547       O550   2.242       .  S
In547       O558   2.245       .  S
In547       O552   2.250       .  S
In547       O554   2.256       .  S
In547       O555   2.251       .  S
In547       O556   2.231       .  S
In547       O559   2.238       .  S
C548        O554   1.261       .  A
C548        O556   1.259       .  A
C548       C2389   1.482       .  S
O549        C557   1.260       .  A
O550        C557   1.258       .  A
C551        O558   1.261       .  A
C551        O552   1.259       .  A
C551       C2548   1.488       .  S
C553        O555   1.261       .  A
C553        O559   1.262       .  A
C553       C2401   1.489       .  S
C557       C3028   1.487       .  S
In560       O562   2.236       .  S
In560       O563   2.259       .  S
In560       O571   2.254       .  S
In560       O565   2.233       .  S
In560       O567   2.246       .  S
In560       O568   2.266       .  S
In560       O569   2.227       .  S
In560       O572   2.230       .  S
C561        O567   1.262       .  A
C561        O569   1.260       .  A
C561       C2500   1.484       .  S
O562        C570   1.258       .  A
O563        C570   1.263       .  A
C564        O571   1.263       .  A
C564        O565   1.259       .  A
C564       C2377   1.487       .  S
C566        O568   1.264       .  A
C566        O572   1.259       .  A
C566       C2404   1.490       .  S
C570       C2365   1.488       .  S
In573       O575   2.244       .  S
In573       O576   2.247       .  S
In573       O584   2.248       .  S
In573       O578   2.252       .  S
In573       O580   2.246       .  S
In573       O581   2.249       .  S
In573       O582   2.243       .  S
In573       O585   2.231       .  S
C574        O580   1.261       .  A
C574        O582   1.261       .  A
C574       C2353   1.488       .  S
O575        C583   1.260       .  A
O576        C583   1.261       .  A
C577        O584   1.261       .  A
C577        O578   1.259       .  A
C577       C2329   1.489       .  S
C579        O581   1.261       .  A
C579        O585   1.260       .  A
C579       C2428   1.484       .  S
C583       C2341   1.488       .  S
In586       O588   2.250       .  S
In586       O589   2.239       .  S
In586       O597   2.256       .  S
In586       O591   2.237       .  S
In586       O593   2.254       .  S
In586       O594   2.250       .  S
In586       O595   2.236       .  S
In586       O598   2.245       .  S
C587        O593   1.261       .  A
C587        O595   1.259       .  A
C587       C2317   1.484       .  S
O588        C596   1.261       .  A
O589        C596   1.259       .  A
C590        O597   1.261       .  A
C590        O591   1.259       .  A
C590       C2416   1.488       .  S
C592        O594   1.261       .  A
C592        O598   1.259       .  A
C592       C2356   1.488       .  S
C596       C2764   1.488       .  S
In599       O601   2.233       .  S
In599       O602   2.252       .  S
In599       O610   2.252       .  S
In599       O604   2.240       .  S
In599       O606   2.253       .  S
In599       O607   2.248       .  S
In599       O608   2.233       .  S
In599       O611   2.251       .  S
C600        O606   1.262       .  A
C600        O608   1.258       .  A
C600       C2392   1.483       .  S
O601        C609   1.261       .  A
O602        C609   1.263       .  A
C603        O610   1.262       .  A
C603        O604   1.260       .  A
C603       C2344   1.487       .  S
C605        O607   1.261       .  A
C605        O611   1.259       .  A
C605       C2956   1.489       .  S
C609       C2305   1.488       .  S
In612       O614   2.244       .  S
In612       O615   2.259       .  S
In612       O623   2.256       .  S
In612       O617   2.248       .  S
In612       O619   2.255       .  S
In612       O620   2.245       .  S
In612       O621   2.235       .  S
In612       O624   2.255       .  S
C613        O619   1.261       .  A
C613        O621   1.260       .  A
C613       C2320   1.486       .  S
O614        C622   1.259       .  A
O615        C622   1.261       .  A
C616        O623   1.260       .  A
C616        O617   1.259       .  A
C616       C2380   1.490       .  S
C618        O620   1.259       .  A
C618        O624   1.262       .  A
C618       C2572   1.491       .  S
C622       C2308   1.490       .  S
In625       O627   2.242       .  S
In625       O628   2.237       .  S
In625       O636   2.235       .  S
In625       O630   2.245       .  S
In625       O632   2.247       .  S
In625       O633   2.236       .  S
In625       O634   2.239       .  S
In625       O637   2.253       .  S
C626        O632   1.260       .  A
C626        O634   1.259       .  A
C626       C2269   1.479       .  S
O627        C635   1.260       .  A
O628        C635   1.261       .  A
C629        O636   1.261       .  A
C629        O630   1.260       .  A
C629       C2281   1.485       .  S
C631        O633   1.258       .  A
C631        O637   1.262       .  A
C631       C3328   1.486       .  S
C635       C2293   1.483       .  S
In638       O640   2.238       .  S
In638       O641   2.245       .  S
In638       O649   2.250       .  S
In638       O643   2.244       .  S
In638       O645   2.244       .  S
In638       O646   2.242       .  S
In638       O647   2.237       .  S
In638       O650   2.250       .  S
C639        O645   1.261       .  A
C639        O647   1.260       .  A
C639       C2233   1.485       .  S
O640        C648   1.260       .  A
O641        C648   1.261       .  A
C642        O649   1.261       .  A
C642        O643   1.260       .  A
C642       C2257   1.489       .  S
C644        O646   1.260       .  A
C644        O650   1.260       .  A
C644       C2245   1.485       .  S
C648       C2296   1.485       .  S
In651       O653   2.252       .  S
In651       O654   2.245       .  S
In651       O662   2.252       .  S
In651       O656   2.241       .  S
In651       O658   2.243       .  S
In651       O659   2.259       .  S
In651       O660   2.239       .  S
In651       O663   2.239       .  S
C652        O658   1.261       .  A
C652        O660   1.260       .  A
C652       C2272   1.482       .  S
O653        C661   1.260       .  A
O654        C661   1.260       .  A
C655        O662   1.261       .  A
C655        O656   1.260       .  A
C655       C2209   1.486       .  S
C657        O659   1.262       .  A
C657        O663   1.260       .  A
C657       C2221   1.489       .  S
C661       C3208   1.490       .  S
In664       O666   2.253       .  S
In664       O667   2.249       .  S
In664       O675   2.248       .  S
In664       O669   2.253       .  S
In664       O671   2.252       .  S
In664       O672   2.262       .  S
In664       O673   2.236       .  S
In664       O676   2.234       .  S
C665        O671   1.261       .  A
C665        O673   1.260       .  A
C665       C2185   1.485       .  S
O666        C674   1.261       .  A
O667        C674   1.260       .  A
C668        O675   1.260       .  A
C668        O669   1.260       .  A
C668       C2260   1.491       .  S
C670        O672   1.262       .  A
C670        O676   1.259       .  A
C670       C2224   1.489       .  S
C674       C2197   1.491       .  S
In677       O679   2.242       .  S
In677       O680   2.246       .  S
In677       O688   2.254       .  S
In677       O682   2.248       .  S
In677       O684   2.257       .  S
In677       O685   2.250       .  S
In677       O686   2.241       .  S
In677       O689   2.245       .  S
C678        O684   1.262       .  A
C678        O686   1.259       .  A
C678       C2188   1.486       .  S
O679        C687   1.261       .  A
O680        C687   1.262       .  A
C681        O688   1.260       .  A
C681        O682   1.261       .  A
C681       C2161   1.491       .  S
C683        O685   1.260       .  A
C683        O689   1.260       .  A
C683       C2152   1.488       .  S
C687       C2173   1.485       .  S
In690       O692   2.235       .  S
In690       O693   2.260       .  S
In690       O701   2.254       .  S
In690       O695   2.245       .  S
In690       O697   2.253       .  S
In690       O698   2.255       .  S
In690       O699   2.236       .  S
In690       O702   2.241       .  S
C691        O697   1.263       .  A
C691        O699   1.261       .  A
C691       C2125   1.484       .  S
O692        C700   1.259       .  A
O693        C700   1.263       .  A
C694        O701   1.260       .  A
C694        O695   1.259       .  A
C694       C2212   1.488       .  S
C696        O698   1.261       .  A
C696        O702   1.260       .  A
C696       C2140   1.484       .  S
C700       C2176   1.489       .  S
In703       O705   2.233       .  S
In703       O706   2.259       .  S
In703       O714   2.263       .  S
In703       O708   2.238       .  S
In703       O710   2.250       .  S
In703       O711   2.257       .  S
In703       O712   2.241       .  S
In703       O715   2.234       .  S
C704        O710   1.261       .  A
C704        O712   1.261       .  A
C704       C2104   1.489       .  S
O705        C713   1.258       .  A
O706        C713   1.261       .  A
C707        O714   1.262       .  A
C707        O708   1.259       .  A
C707       C2164   1.488       .  S
C709        O711   1.263       .  A
C709        O715   1.260       .  A
C709       C2113   1.484       .  S
C713       C3352   1.489       .  S
In716       O718   2.254       .  S
In716       O719   2.233       .  S
In716       O727   2.246       .  S
In716       O721   2.251       .  S
In716       O723   2.261       .  S
In716       O724   2.248       .  S
In716       O725   2.244       .  S
In716       O728   2.241       .  S
C717        O723   1.262       .  A
C717        O725   1.260       .  A
C717       C2128   1.484       .  S
O718        C726   1.262       .  A
O719        C726   1.259       .  A
C720        O727   1.259       .  A
C720        O721   1.261       .  A
C720       C2089   1.486       .  S
C722        O724   1.260       .  A
C722        O728   1.260       .  A
C722       C2116   1.487       .  S
C726       C2077   1.486       .  S
In729       O731   2.260       .  S
In729       O732   2.248       .  S
In729       O740   2.244       .  S
In729       O734   2.241       .  S
In729       O736   2.243       .  S
In729       O737   2.260       .  S
In729       O738   2.246       .  S
In729       O741   2.250       .  S
C730        O736   1.260       .  A
C730        O738   1.262       .  A
C730       C2041   1.487       .  S
O731        C739   1.259       .  A
O732        C739   1.260       .  A
C733        O740   1.260       .  A
C733        O734   1.260       .  A
C733       C2284   1.485       .  S
C735        O737   1.262       .  A
C735        O741   1.260       .  A
C735       C2065   1.493       .  S
C739       C2053   1.490       .  S
In742       O744   2.253       .  S
In742       O745   2.258       .  S
In742       O753   2.253       .  S
In742       O747   2.230       .  S
In742       O749   2.243       .  S
In742       O750   2.265       .  S
In742       O751   2.242       .  S
In742       O754   2.243       .  S
C743        O749   1.260       .  A
C743        O751   1.260       .  A
C743       C2236   1.485       .  S
O744        C752   1.259       .  A
O745        C752   1.262       .  A
C746        O753   1.263       .  A
C746        O747   1.258       .  A
C746       C2029   1.487       .  S
C748        O750   1.263       .  A
C748        O754   1.259       .  A
C748       C2068   1.493       .  S
C752       C2017   1.492       .  S
In755       O757   2.232       .  S
In755       O758   2.253       .  S
In755       O766   2.258       .  S
In755       O760   2.251       .  S
In755       O762   2.249       .  S
In755       O763   2.254       .  S
In755       O764   2.241       .  S
In755       O767   2.242       .  S
C756        O762   1.262       .  A
C756        O764   1.259       .  A
C756       C2044   1.487       .  S
O757        C765   1.260       .  A
O758        C765   1.262       .  A
C759        O766   1.261       .  A
C759        O760   1.259       .  A
C759       C2092   1.491       .  S
C761        O763   1.260       .  A
C761        O767   1.259       .  A
C761       C1993   1.487       .  S
C765       C2005   1.483       .  S
In768       O770   2.233       .  S
In768       O771   2.254       .  S
In768       O779   2.246       .  S
In768       O773   2.247       .  S
In768       O775   2.260       .  S
In768       O776   2.240       .  S
In768       O777   2.237       .  S
In768       O780   2.241       .  S
C769        O775   1.263       .  A
C769        O777   1.259       .  A
C769       C2101   1.490       .  S
O770        C778   1.259       .  A
O771        C778   1.262       .  A
C772        O779   1.260       .  A
C772        O773   1.261       .  A
C772       C2032   1.488       .  S
C774        O776   1.261       .  A
C774        O780   1.261       .  A
C774       C3424   1.486       .  S
C778       C2008   1.487       .  S
In781       O783   2.232       .  S
In781       O784   2.268       .  S
In781       O792   2.261       .  S
In781       O786   2.235       .  S
In781       O788   2.240       .  S
In781       O789   2.262       .  S
In781       O790   2.235       .  S
In781       O793   2.232       .  S
C782        O788   1.262       .  A
C782        O790   1.262       .  A
C782       C1957   1.485       .  S
O783        C791   1.258       .  A
O784        C791   1.263       .  A
C785        O792   1.262       .  A
C785        O786   1.258       .  A
C785       C1969   1.489       .  S
C787        O789   1.263       .  A
C787        O793   1.259       .  A
C787       C2848   1.487       .  S
C791       C1981   1.488       .  S
In794       O796   2.242       .  S
In794       O797   2.261       .  S
In794       O805   2.256       .  S
In794       O799   2.247       .  S
In794       O801   2.247       .  S
In794       O802   2.256       .  S
In794       O803   2.230       .  S
In794       O806   2.265       .  S
C795        O801   1.262       .  A
C795        O803   1.260       .  A
C795       C1984   1.482       .  S
O796        C804   1.259       .  A
O797        C804   1.262       .  A
C798        O805   1.261       .  A
C798        O799   1.260       .  A
C798       C2200   1.491       .  S
C800        O802   1.261       .  A
C800        O806   1.261       .  A
C800       C1945   1.496       .  S
C804       C1933   1.490       .  S
In807       O809   2.257       .  S
In807       O810   2.235       .  S
In807       O818   2.253       .  S
In807       O812   2.247       .  S
In807       O814   2.254       .  S
In807       O815   2.252       .  S
In807       O816   2.237       .  S
In807       O819   2.245       .  S
C808        O814   1.261       .  A
C808        O816   1.258       .  A
C808       C1921   1.482       .  S
O809        C817   1.263       .  A
O810        C817   1.259       .  A
C811        O818   1.261       .  A
C811        O812   1.259       .  A
C811       C2776   1.488       .  S
C813        O815   1.260       .  A
C813        O819   1.259       .  A
C813       C1960   1.484       .  S
C817       C1909   1.490       .  S
In820       O822   2.258       .  S
In820       O823   2.254       .  S
In820       O831   2.262       .  S
In820       O825   2.251       .  S
In820       O827   2.248       .  S
In820       O828   2.254       .  S
In820       O829   2.239       .  S
In820       O832   2.238       .  S
C821        O827   1.262       .  A
C821        O829   1.261       .  A
C821       C1885   1.485       .  S
O822        C830   1.260       .  A
O823        C830   1.260       .  A
C824        O831   1.261       .  A
C824        O825   1.260       .  A
C824       C1948   1.494       .  S
C826        O828   1.263       .  A
C826        O832   1.260       .  A
C826       C1924   1.483       .  S
C830       C1897   1.493       .  S
In833       O835   2.243       .  S
In833       O836   2.248       .  S
In833       O844   2.254       .  S
In833       O838   2.249       .  S
In833       O840   2.255       .  S
In833       O841   2.241       .  S
In833       O842   2.224       .  S
In833       O845   2.260       .  S
C834        O840   1.264       .  A
C834        O842   1.259       .  A
C834       C1861   1.487       .  S
O835        C843   1.261       .  A
O836        C843   1.262       .  A
C837        O844   1.260       .  A
C837        O838   1.261       .  A
C837       C1912   1.490       .  S
C839        O841   1.259       .  A
C839        O845   1.262       .  A
C839       C2056   1.491       .  S
C843       C1873   1.489       .  S
In846       O848   2.229       .  S
In846       O849   2.257       .  S
In846       O857   2.259       .  S
In846       O851   2.237       .  S
In846       O853   2.250       .  S
In846       O854   2.257       .  S
In846       O855   2.232       .  S
In846       O858   2.232       .  S
C847        O853   1.262       .  A
C847        O855   1.259       .  A
C847       C1888   1.486       .  S
O848        C856   1.260       .  A
O849        C856   1.264       .  A
C850        O857   1.262       .  A
C850        O851   1.260       .  A
C850       C1849   1.488       .  S
C852        O854   1.262       .  A
C852        O858   1.258       .  A
C852       C1837   1.485       .  S
C856       C1876   1.489       .  S
In859       O861   2.251       .  S
In859       O862   2.251       .  S
In859       O870   2.257       .  S
In859       O864   2.245       .  S
In859       O866   2.253       .  S
In859       O867   2.261       .  S
In859       O868   2.234       .  S
In859       O871   2.237       .  S
C860        O866   1.262       .  A
C860        O868   1.260       .  A
C860       C1801   1.487       .  S
O861        C869   1.260       .  A
O862        C869   1.261       .  A
C863        O870   1.261       .  A
C863        O864   1.259       .  A
C863       C1972   1.488       .  S
C865        O867   1.262       .  A
C865        O871   1.260       .  A
C865       C1825   1.490       .  S
C869       C1813   1.490       .  S
In872       O874   2.245       .  S
In872       O875   2.259       .  S
In872       O883   2.261       .  S
In872       O877   2.255       .  S
In872       O879   2.247       .  S
In872       O880   2.261       .  S
In872       O881   2.246       .  S
In872       O884   2.228       .  S
C873        O879   1.262       .  A
C873        O881   1.260       .  A
C873       C1936   1.489       .  S
O874        C882   1.259       .  A
O875        C882   1.261       .  A
C876        O883   1.260       .  A
C876        O877   1.260       .  A
C876       C1789   1.493       .  S
C878        O880   1.263       .  A
C878        O884   1.259       .  A
C878       C1828   1.487       .  S
C882       C2149   1.490       .  S
In885       O887   2.250       .  S
In885       O888   2.254       .  S
In885       O896   2.253       .  S
In885       O890   2.247       .  S
In885       O892   2.262       .  S
In885       O893   2.245       .  S
In885       O894   2.238       .  S
In885       O897   2.246       .  S
C886        O892   1.260       .  A
C886        O894   1.259       .  A
C886       C1864   1.487       .  S
O887        C895   1.260       .  A
O888        C895   1.258       .  A
C889        O896   1.261       .  A
C889        O890   1.261       .  A
C889       C1768   1.490       .  S
C891        O893   1.262       .  A
C891        O897   1.261       .  A
C891       C1777   1.489       .  S
C895       C1996   1.488       .  S
In898       O900   2.254       .  S
In898       O901   2.246       .  S
In898       O909   2.256       .  S
In898       O903   2.259       .  S
In898       O905   2.249       .  S
In898       O906   2.267       .  S
In898       O907   2.247       .  S
In898       O910   2.222       .  S
C899        O905   1.262       .  A
C899        O907   1.261       .  A
C899       C1780   1.490       .  S
O900        C908   1.261       .  A
O901        C908   1.261       .  A
C902        O909   1.261       .  A
C902        O903   1.261       .  A
C902       C2596   1.494       .  S
C904        O906   1.263       .  A
C904        O910   1.259       .  A
C904       C1753   1.487       .  S
C908       C1852   1.490       .  S
In911       O913   2.236       .  S
In911       O914   2.257       .  S
In911       O922   2.256       .  S
In911       O916   2.242       .  S
In911       O918   2.248       .  S
In911       O919   2.255       .  S
In911       O920   2.240       .  S
In911       O923   2.245       .  S
C912        O918   1.261       .  A
C912        O920   1.261       .  A
C912       C1804   1.487       .  S
O913        C921   1.260       .  A
O914        C921   1.264       .  A
C915        O922   1.262       .  A
C915        O916   1.259       .  A
C915       C1765   1.488       .  S
C917        O919   1.261       .  A
C917        O923   1.260       .  A
C917       C1729   1.488       .  S
C921       C1744   1.488       .  S
In924       O926   2.250       .  S
In924       O927   2.259       .  S
In924       O935   2.269       .  S
In924       O929   2.239       .  S
In924       O931   2.262       .  S
In924       O932   2.250       .  S
In924       O933   2.237       .  S
In924       O936   2.274       .  S
C925        O931   1.260       .  A
C925        O933   1.261       .  A
C925       C1756   1.487       .  S
O926        C934   1.260       .  A
O927        C934   1.261       .  A
C928        O935   1.261       .  A
C928        O929   1.258       .  A
C928       C1792   1.492       .  S
C930        O932   1.259       .  A
C930        O936   1.262       .  A
C930       C2656   1.496       .  S
C934       C1741   1.489       .  S
In937       O939   2.244       .  S
In937       O940   2.259       .  S
In937       O948   2.259       .  S
In937       O942   2.247       .  S
In937       O944   2.257       .  S
In937       O945   2.246       .  S
In937       O946   2.252       .  S
In937       O949   2.261       .  S
C938        O944   1.260       .  A
C938        O946   1.260       .  A
C938       C1693   1.491       .  S
O939        C947   1.259       .  A
O940        C947   1.261       .  A
C941        O948   1.261       .  A
C941        O942   1.260       .  A
C941       C1705   1.491       .  S
C943        O945   1.259       .  A
C943        O949   1.262       .  A
C943       C2020   1.493       .  S
C947       C1717   1.486       .  S
In950       O952   2.237       .  S
In950       O953   2.259       .  S
In950       O961   2.239       .  S
In950       O955   2.243       .  S
In950       O957   2.245       .  S
In950       O958   2.246       .  S
In950       O959   2.225       .  S
In950       O962   2.240       .  S
C951        O957   1.263       .  A
C951        O959   1.260       .  A
C951       C1657   1.482       .  S
O952        C960   1.259       .  A
O953        C960   1.263       .  A
C954        O961   1.261       .  A
C954        O955   1.260       .  A
C954       C1681   1.484       .  S
C956        O958   1.262       .  A
C956        O962   1.260       .  A
C956       C1669   1.486       .  S
C960       C1720   1.490       .  S
In963       O965   2.243       .  S
In963       O966   2.248       .  S
In963       O974   2.260       .  S
In963       O968   2.240       .  S
In963       O970   2.242       .  S
In963       O971   2.264       .  S
In963       O972   2.246       .  S
In963       O975   2.236       .  S
C964        O970   1.261       .  A
C964        O972   1.262       .  A
C964       C1633   1.486       .  S
O965        C973   1.259       .  A
O966        C973   1.262       .  A
C967        O974   1.261       .  A
C967        O968   1.260       .  A
C967       C1708   1.490       .  S
C969        O971   1.263       .  A
C969        O975   1.258       .  A
C969       C1645   1.487       .  S
C973       C2992   1.488       .  S
In976       O978   2.249       .  S
In976       O979   2.248       .  S
In976       O987   2.265       .  S
In976       O981   2.228       .  S
In976       O983   2.244       .  S
In976       O984   2.248       .  S
In976       O985   2.250       .  S
In976       O988   2.239       .  S
C977        O983   1.259       .  A
C977        O985   1.259       .  A
C977       C1660   1.481       .  S
O978        C986   1.261       .  A
O979        C986   1.259       .  A
C980        O987   1.263       .  A
C980        O981   1.258       .  A
C980       C1621   1.490       .  S
C982        O984   1.261       .  A
C982        O988   1.259       .  A
C982       C1648   1.479       .  S
C986       C1609   1.488       .  S
In989       O991   2.256       .  S
In989       O992   2.232       .  S
In989      O1000   2.241       .  S
In989       O994   2.244       .  S
In989       O996   2.246       .  S
In989       O997   2.235       .  S
In989       O998   2.244       .  S
In989      O1001   2.247       .  S
C990        O996   1.261       .  A
C990        O998   1.260       .  A
C990       C1636   1.484       .  S
O991        C999   1.261       .  A
O992        C999   1.259       .  A
C993       O1000   1.260       .  A
C993        O994   1.260       .  A
C993       C1585   1.483       .  S
C995        O997   1.259       .  A
C995       O1001   1.262       .  A
C995       C2908   1.486       .  S
C999       C1597   1.485       .  S
In1002     O1004   2.250       .  S
In1002     O1005   2.228       .  S
In1002     O1013   2.259       .  S
In1002     O1007   2.236       .  S
In1002     O1009   2.248       .  S
In1002     O1010   2.237       .  S
In1002     O1011   2.242       .  S
In1002     O1014   2.246       .  S
C1003      O1009   1.261       .  A
C1003      O1011   1.260       .  A
C1003      C1573   1.487       .  S
O1004      C1012   1.262       .  A
O1005      C1012   1.259       .  A
C1006      O1013   1.261       .  A
C1006      O1007   1.261       .  A
C1006      C1624   1.490       .  S
C1008      O1010   1.260       .  A
C1008      O1014   1.261       .  A
C1008      C2080   1.484       .  S
C1012      C1600   1.485       .  S
In1015     O1017   2.237       .  S
In1015     O1018   2.234       .  S
In1015     O1026   2.244       .  S
In1015     O1020   2.244       .  S
In1015     O1022   2.249       .  S
In1015     O1023   2.257       .  S
In1015     O1024   2.245       .  S
In1015     O1027   2.227       .  S
C1016      O1022   1.259       .  A
C1016      O1024   1.260       .  A
C1016      C1537   1.485       .  S
O1017      C1025   1.262       .  A
O1018      C1025   1.260       .  A
C1019      O1026   1.260       .  A
C1019      O1020   1.259       .  A
C1019      C1588   1.485       .  S
C1021      O1023   1.261       .  A
C1021      O1027   1.259       .  A
C1021      C1564   1.485       .  S
C1025      C1549   1.481       .  S
In1028     O1030   2.240       .  S
In1028     O1031   2.259       .  S
In1028     O1039   2.257       .  S
In1028     O1033   2.247       .  S
In1028     O1035   2.245       .  S
In1028     O1036   2.259       .  S
In1028     O1037   2.239       .  S
In1028     O1040   2.229       .  S
C1029      O1035   1.262       .  A
C1029      O1037   1.260       .  A
C1029      C1576   1.486       .  S
O1030      C1038   1.259       .  A
O1031      C1038   1.261       .  A
C1032      O1039   1.262       .  A
C1032      O1033   1.259       .  A
C1032      C1525   1.487       .  S
C1034      O1036   1.263       .  A
C1034      O1040   1.261       .  A
C1034      C1561   1.488       .  S
C1038      C2137   1.489       .  S
In1041     O1043   2.233       .  S
In1041     O1044   2.255       .  S
In1041     O1052   2.236       .  S
In1041     O1046   2.249       .  S
In1041     O1048   2.250       .  S
In1041     O1049   2.249       .  S
In1041     O1050   2.248       .  S
In1041     O1053   2.244       .  S
C1042      O1048   1.261       .  A
C1042      O1050   1.260       .  A
C1042      C1513   1.485       .  S
O1043      C1051   1.260       .  A
O1044      C1051   1.262       .  A
C1045      O1052   1.260       .  A
C1045      O1046   1.261       .  A
C1045      C1489   1.484       .  S
C1047      O1049   1.260       .  A
C1047      O1053   1.259       .  A
C1047      C1501   1.487       .  S
C1051      C1540   1.484       .  S
In1054     O1056   2.231       .  S
In1054     O1057   2.256       .  S
In1054     O1065   2.243       .  S
In1054     O1059   2.245       .  S
In1054     O1061   2.249       .  S
In1054     O1062   2.258       .  S
In1054     O1063   2.239       .  S
In1054     O1066   2.242       .  S
C1055      O1061   1.262       .  A
C1055      O1063   1.260       .  A
C1055      C1477   1.485       .  S
O1056      C1064   1.259       .  A
O1057      C1064   1.264       .  A
C1058      O1065   1.261       .  A
C1058      O1059   1.262       .  A
C1058      C1528   1.488       .  S
C1060      O1062   1.262       .  A
C1060      O1066   1.261       .  A
C1060      C3124   1.491       .  S
C1064      C1516   1.484       .  S
In1067     O1069   2.259       .  S
In1067     O1070   2.237       .  S
In1067     O1078   2.244       .  S
In1067     O1072   2.248       .  S
In1067     O1074   2.258       .  S
In1067     O1075   2.255       .  S
In1067     O1076   2.246       .  S
In1067     O1079   2.236       .  S
C1068      O1074   1.262       .  A
C1068      O1076   1.259       .  A
C1068      C1696   1.488       .  S
O1069      C1077   1.261       .  A
O1070      C1077   1.258       .  A
C1071      O1078   1.261       .  A
C1071      O1072   1.261       .  A
C1071      C1504   1.488       .  S
C1073      O1075   1.262       .  A
C1073      O1079   1.259       .  A
C1073      C1468   1.488       .  S
C1077      C2248   1.488       .  S
In1080     O1082   2.246       .  S
In1080     O1083   2.247       .  S
In1080     O1091   2.246       .  S
In1080     O1085   2.243       .  S
In1080     O1087   2.245       .  S
In1080     O1088   2.233       .  S
In1080     O1089   2.234       .  S
In1080     O1092   2.257       .  S
C1081      O1087   1.261       .  A
C1081      O1089   1.261       .  A
C1081      C1480   1.485       .  S
O1082      C1090   1.260       .  A
O1083      C1090   1.261       .  A
C1084      O1091   1.260       .  A
C1084      O1085   1.260       .  A
C1084      C1684   1.486       .  S
C1086      O1088   1.260       .  A
C1086      O1092   1.263       .  A
C1086      C1465   1.485       .  S
C1090      C3061   1.488       .  S
In1093     O1095   2.232       .  S
In1093     O1096   2.258       .  S
In1093     O1104   2.261       .  S
In1093     O1098   2.245       .  S
In1093     O1100   2.255       .  S
In1093     O1101   2.249       .  S
In1093     O1102   2.234       .  S
In1093     O1105   2.249       .  S
C1094      O1100   1.262       .  A
C1094      O1102   1.260       .  A
C1094      C1432   1.486       .  S
O1095      C1103   1.260       .  A
O1096      C1103   1.262       .  A
C1097      O1104   1.261       .  A
C1097      O1098   1.259       .  A
C1097      C1441   1.491       .  S
C1099      O1101   1.259       .  A
C1099      O1105   1.260       .  A
C1099      C1816   1.488       .  S
C1103      C1453   1.487       .  S
In1106     O1108   2.232       .  S
In1106     O1109   2.247       .  S
In1106     O1117   2.238       .  S
In1106     O1111   2.236       .  S
In1106     O1113   2.240       .  S
In1106     O1114   2.245       .  S
In1106     O1115   2.238       .  S
In1106     O1118   2.222       .  S
C1107      O1113   1.261       .  A
C1107      O1115   1.260       .  A
C1107      C1405   1.484       .  S
O1108      C1116   1.260       .  A
O1109      C1116   1.262       .  A
C1110      O1117   1.261       .  A
C1110      O1111   1.261       .  A
C1110      C1417   1.484       .  S
C1112      O1114   1.262       .  A
C1112      O1118   1.259       .  A
C1112      C1552   1.483       .  S
C1116      C1456   1.482       .  S
In1119     O1121   2.239       .  S
In1119     O1122   2.255       .  S
In1119     O1130   2.264       .  S
In1119     O1124   2.230       .  S
In1119     O1126   2.253       .  S
In1119     O1127   2.260       .  S
In1119     O1128   2.233       .  S
In1119     O1131   2.223       .  S
C1120      O1126   1.262       .  A
C1120      O1128   1.261       .  A
C1120      C1429   1.488       .  S
O1121      C1129   1.259       .  A
O1122      C1129   1.261       .  A
C1123      O1130   1.261       .  A
C1123      O1124   1.257       .  A
C1123      C1381   1.488       .  S
C1125      O1127   1.262       .  A
C1125      O1131   1.258       .  A
C1125      C1393   1.477       .  S
C1129      C1732   1.488       .  S
In1132     O1134   2.229       .  S
In1132     O1135   2.245       .  S
In1132     O1143   2.248       .  S
In1132     O1137   2.224       .  S
In1132     O1139   2.242       .  S
In1132     O1140   2.252       .  S
In1132     O1141   2.233       .  S
In1132     O1144   2.230       .  S
C1133      O1139   1.260       .  A
C1133      O1141   1.259       .  A
C1133      C1369   1.482       .  S
O1134      C1142   1.259       .  A
O1135      C1142   1.261       .  A
C1136      O1143   1.263       .  A
C1136      O1137   1.259       .  A
C1136      C1420   1.482       .  S
C1138      O1140   1.260       .  A
C1138      O1144   1.259       .  A
C1138      C1396   1.481       .  S
C1142      C2512   1.481       .  S
In1145     O1147   2.233       .  S
In1145     O1148   2.258       .  S
In1145     O1156   2.243       .  S
In1145     O1150   2.245       .  S
In1145     O1152   2.243       .  S
In1145     O1153   2.244       .  S
In1145     O1154   2.220       .  S
In1145     O1157   2.243       .  S
C1146      O1152   1.263       .  A
C1146      O1154   1.261       .  A
C1146      C1372   1.482       .  S
O1147      C1155   1.260       .  A
O1148      C1155   1.263       .  A
C1149      O1156   1.260       .  A
C1149      O1150   1.260       .  A
C1149      C1345   1.486       .  S
C1151      O1153   1.260       .  A
C1151      O1157   1.260       .  A
C1151      C2368   1.487       .  S
C1155      C1360   1.486       .  S
In1158     O1160   2.234       .  S
In1158     O1161   2.258       .  S
In1158     O1169   2.254       .  S
In1158     O1163   2.237       .  S
In1158     O1165   2.260       .  S
In1158     O1166   2.245       .  S
In1158     O1167   2.244       .  S
In1158     O1170   2.249       .  S
C1159      O1165   1.261       .  A
C1159      O1167   1.260       .  A
C1159      C1336   1.489       .  S
O1160      C1168   1.261       .  A
O1161      C1168   1.262       .  A
C1162      O1169   1.261       .  A
C1162      O1163   1.261       .  A
C1162      C1384   1.488       .  S
C1164      O1166   1.261       .  A
C1164      O1170   1.260       .  A
C1164      C1612   1.487       .  S
C1168      C1357   1.489       .  S
In1171     O1173   2.250       .  S
In1171     O1174   2.232       .  S
In1171     O1182   2.251       .  S
In1171     O1176   2.228       .  S
In1171     O1178   2.244       .  S
In1171     O1179   2.257       .  S
In1171     O1180   2.237       .  S
In1171     O1183   2.229       .  S
C1172      O1178   1.261       .  A
C1172      O1180   1.260       .  A
C1172      C1309   1.482       .  S
O1173      C1181   1.261       .  A
O1174      C1181   1.258       .  A
C1175      O1182   1.261       .  A
C1175      O1176   1.258       .  A
C1175      C1348   1.482       .  S
C1177      O1179   1.262       .  A
C1177      O1183   1.259       .  A
C1177      C1324   1.484       .  S
C1181      C1840   1.485       .  S
In1184     O1186   2.242       .  S
In1184     O1187   2.247       .  S
In1184     O1195   2.264       .  S
In1184     O1189   2.236       .  S
In1184     O1191   2.255       .  S
In1184     O1192   2.251       .  S
In1184     O1193   2.245       .  S
In1184     O1196   2.230       .  S
C1185      O1191   1.262       .  A
C1185      O1193   1.260       .  A
C1185      C1333   1.485       .  S
O1186      C1194   1.260       .  A
O1187      C1194   1.260       .  A
C1188      O1195   1.262       .  A
C1188      O1189   1.260       .  A
C1188      C1297   1.491       .  S
C1190      O1192   1.262       .  A
C1190      O1196   1.260       .  A
C1190      C1321   1.480       .  S
C1194      C1672   1.486       .  S
In1197     O1199   2.243       .  S
In1197     O1200   2.256       .  S
In1197     O1208   2.247       .  S
In1197     O1202   2.257       .  S
In1197     O1204   2.252       .  S
In1197     O1205   2.260       .  S
In1197     O1206   2.227       .  S
In1197     O1209   2.227       .  S
C1198      O1204   1.264       .  A
C1198      O1206   1.261       .  A
C1198      C1288   1.485       .  S
O1199      C1207   1.260       .  A
O1200      C1207   1.262       .  A
C1201      O1208   1.260       .  A
C1201      O1202   1.261       .  A
C1201      C2440   1.492       .  S
C1203      O1205   1.263       .  A
C1203      O1209   1.259       .  A
C1203      C1273   1.485       .  S
C1207      C1444   1.490       .  S
In1210     O1212   2.237       .  S
In1210     O1213   2.250       .  S
In1210     O1221   2.246       .  S
In1210     O1215   2.238       .  S
In1210     O1217   2.241       .  S
In1210     O1218   2.252       .  S
In1210     O1219   2.243       .  S
In1210     O1222   2.226       .  S
C1211      O1217   1.261       .  A
C1211      O1219   1.260       .  A
C1211      C1408   1.485       .  S
O1212      C1220   1.260       .  A
O1213      C1220   1.260       .  A
C1214      O1221   1.262       .  A
C1214      O1215   1.259       .  A
C1214      C1261   1.487       .  S
C1216      O1218   1.263       .  A
C1216      O1222   1.259       .  A
C1216      C1285   1.485       .  S
C1220      C1492   1.486       .  S
In1223     O1225   2.239       .  S
In1223     O1226   2.254       .  S
In1223     O1234   2.274       .  S
In1223     O1228   2.236       .  S
In1223     O1230   2.255       .  S
In1223     O1231   2.265       .  S
In1223     O1232   2.237       .  S
In1223     O1235   2.240       .  S
C1224      O1230   1.261       .  A
C1224      O1232   1.260       .  A
C1224      C1276   1.487       .  S
O1225      C1233   1.260       .  A
O1226      C1233   1.262       .  A
C1227      O1234   1.262       .  A
C1227      O1228   1.259       .  A
C1227      C1300   1.492       .  S
C1229      O1231   1.261       .  A
C1229      O1235   1.259       .  A
C1229      C2332   1.487       .  S
C1233      C1252   1.486       .  S
In1236     O1238   2.234       .  S
In1236     O1239   2.257       .  S
In1236     O1247   2.250       .  S
In1236     O1241   2.243       .  S
In1236     O1243   2.242       .  S
In1236     O1244   2.251       .  S
In1236     O1245   2.231       .  S
In1236     O1248   2.252       .  S
C1237      O1243   1.262       .  A
C1237      O1245   1.261       .  A
C1237      C1312   1.483       .  S
O1238      C1246   1.259       .  A
O1239      C1246   1.263       .  A
C1240      O1247   1.261       .  A
C1240      O1241   1.260       .  A
C1240      C1264   1.488       .  S
C1242      O1244   1.261       .  A
C1242      O1248   1.260       .  A
C1242      C1900   1.492       .  S
C1246      C1249   1.487       .  S
C1249      C1250   1.405       .  A
C1249      C1254   1.416       .  A
C1250      C1251   1.403       .  A
C1250      H1255   1.085       .  S
C1251      C1252   1.415       .  A
C1251      C1258   1.444       .  S
C1252      C1253   1.404       .  A
C1253      C1254   1.399       .  A
C1253      H1256   1.085       .  S
C1254      C1257   1.445       .  S
C1257      N1259   1.157       .  T
C1258      N1260   1.157       .  T
C1261      C1262   1.405       .  A
C1261      C1266   1.416       .  A
C1262      C1263   1.401       .  A
C1262      H1267   1.085       .  S
C1263      C1264   1.415       .  A
C1263      C1270   1.444       .  S
C1264      C1265   1.406       .  A
C1265      C1266   1.401       .  A
C1265      H1268   1.085       .  S
C1266      C1269   1.445       .  S
C1269      N1271   1.158       .  T
C1270      N1272   1.157       .  T
C1273      C1274   1.405       .  A
C1273      C1278   1.415       .  A
C1274      C1275   1.404       .  A
C1274      H1279   1.085       .  S
C1275      C1276   1.416       .  A
C1275      C1282   1.444       .  S
C1276      C1277   1.404       .  A
C1277      C1278   1.397       .  A
C1277      H1280   1.085       .  S
C1278      C1281   1.445       .  S
C1281      N1283   1.157       .  T
C1282      N1284   1.157       .  T
C1285      C1286   1.406       .  A
C1285      C1290   1.415       .  A
C1286      C1287   1.402       .  A
C1286      H1291   1.085       .  S
C1287      C1288   1.414       .  A
C1287      C1294   1.444       .  S
C1288      C1289   1.404       .  A
C1289      C1290   1.397       .  A
C1289      H1292   1.085       .  S
C1290      C1293   1.445       .  S
C1293      N1295   1.157       .  T
C1294      N1296   1.157       .  T
C1297      C1298   1.408       .  A
C1297      C1302   1.415       .  A
C1298      C1299   1.407       .  A
C1298      H1303   1.085       .  S
C1299      C1300   1.415       .  A
C1299      C1306   1.443       .  S
C1300      C1301   1.405       .  A
C1301      C1302   1.399       .  A
C1301      H1304   1.085       .  S
C1302      C1305   1.445       .  S
C1305      N1307   1.157       .  T
C1306      N1308   1.157       .  T
C1309      C1310   1.405       .  A
C1309      C1314   1.414       .  A
C1310      C1311   1.400       .  A
C1310      H1315   1.085       .  S
C1311      C1312   1.414       .  A
C1311      C1318   1.444       .  S
C1312      C1313   1.405       .  A
C1313      C1314   1.398       .  A
C1313      H1316   1.085       .  S
C1314      C1317   1.444       .  S
C1317      N1319   1.157       .  T
C1318      N1320   1.157       .  T
C1321      C1322   1.402       .  A
C1321      C1326   1.413       .  A
C1322      C1323   1.397       .  A
C1322      H1327   1.085       .  S
C1323      C1324   1.415       .  A
C1323      C1330   1.445       .  S
C1324      C1325   1.406       .  A
C1325      C1326   1.403       .  A
C1325      H1328   1.085       .  S
C1326      C1329   1.444       .  S
C1329      N1331   1.157       .  T
C1330      N1332   1.157       .  T
C1333      C1334   1.405       .  A
C1333      C1338   1.414       .  A
C1334      C1335   1.404       .  A
C1334      H1339   1.085       .  S
C1335      C1336   1.416       .  A
C1335      C1342   1.444       .  S
C1336      C1337   1.406       .  A
C1337      C1338   1.400       .  A
C1337      H1340   1.085       .  S
C1338      C1341   1.445       .  S
C1341      N1343   1.157       .  T
C1342      N1344   1.157       .  T
C1345      C1346   1.405       .  A
C1345      C1350   1.416       .  A
C1346      C1347   1.399       .  A
C1346      H1351   1.085       .  S
C1347      C1348   1.414       .  A
C1347      C1354   1.445       .  S
C1348      C1349   1.404       .  A
C1349      C1350   1.400       .  A
C1349      H1352   1.085       .  S
C1350      C1353   1.444       .  S
C1353      N1355   1.157       .  T
C1354      N1356   1.157       .  T
C1357      C1358   1.405       .  A
C1357      C1362   1.416       .  A
C1358      C1359   1.398       .  A
C1358      H1363   1.085       .  S
C1359      C1360   1.414       .  A
C1359      C1366   1.445       .  S
C1360      C1361   1.405       .  A
C1361      C1362   1.405       .  A
C1361      H1364   1.085       .  S
C1362      C1365   1.444       .  S
C1365      N1367   1.157       .  T
C1366      N1368   1.157       .  T
C1369      C1370   1.406       .  A
C1369      C1374   1.414       .  A
C1370      C1371   1.400       .  A
C1370      H1375   1.085       .  S
C1371      C1372   1.414       .  A
C1371      C1378   1.444       .  S
C1372      C1373   1.405       .  A
C1373      C1374   1.396       .  A
C1373      H1376   1.085       .  S
C1374      C1377   1.445       .  S
C1377      N1379   1.157       .  T
C1378      N1380   1.157       .  T
C1381      C1382   1.406       .  A
C1381      C1386   1.416       .  A
C1382      C1383   1.403       .  A
C1382      H1387   1.085       .  S
C1383      C1384   1.416       .  A
C1383      C1390   1.444       .  S
C1384      C1385   1.404       .  A
C1385      C1386   1.398       .  A
C1385      H1388   1.085       .  S
C1386      C1389   1.445       .  S
C1389      N1391   1.157       .  T
C1390      N1392   1.157       .  T
C1393      C1394   1.404       .  A
C1393      C1398   1.412       .  A
C1394      C1395   1.404       .  A
C1394      H1399   1.085       .  S
C1395      C1396   1.415       .  A
C1395      C1402   1.444       .  S
C1396      C1397   1.403       .  A
C1397      C1398   1.395       .  A
C1397      H1400   1.085       .  S
C1398      C1401   1.445       .  S
C1401      N1403   1.157       .  T
C1402      N1404   1.157       .  T
C1405      C1406   1.405       .  A
C1405      C1410   1.414       .  A
C1406      C1407   1.400       .  A
C1406      H1411   1.085       .  S
C1407      C1408   1.415       .  A
C1407      C1414   1.444       .  S
C1408      C1409   1.405       .  A
C1409      C1410   1.399       .  A
C1409      H1412   1.085       .  S
C1410      C1413   1.444       .  S
C1413      N1415   1.157       .  T
C1414      N1416   1.157       .  T
C1417      C1418   1.405       .  A
C1417      C1422   1.415       .  A
C1418      C1419   1.399       .  A
C1418      H1423   1.085       .  S
C1419      C1420   1.415       .  A
C1419      C1426   1.445       .  S
C1420      C1421   1.404       .  A
C1421      C1422   1.400       .  A
C1421      H1424   1.085       .  S
C1422      C1425   1.444       .  S
C1425      N1427   1.157       .  T
C1426      N1428   1.158       .  T
C1429      C1430   1.407       .  A
C1429      C1434   1.415       .  A
C1430      C1431   1.404       .  A
C1430      H1435   1.085       .  S
C1431      C1432   1.414       .  A
C1431      C1438   1.444       .  S
C1432      C1433   1.404       .  A
C1433      C1434   1.398       .  A
C1433      H1436   1.085       .  S
C1434      C1437   1.444       .  S
C1437      N1439   1.157       .  T
C1438      N1440   1.158       .  T
C1441      C1442   1.405       .  A
C1441      C1446   1.416       .  A
C1442      C1443   1.403       .  A
C1442      H1447   1.085       .  S
C1443      C1444   1.417       .  A
C1443      C1450   1.444       .  S
C1444      C1445   1.405       .  A
C1445      C1446   1.403       .  A
C1445      H1448   1.085       .  S
C1446      C1449   1.444       .  S
C1449      N1451   1.157       .  T
C1450      N1452   1.157       .  T
C1453      C1454   1.406       .  A
C1453      C1458   1.416       .  A
C1454      C1455   1.398       .  A
C1454      H1459   1.085       .  S
C1455      C1456   1.413       .  A
C1455      C1462   1.445       .  S
C1456      C1457   1.404       .  A
C1457      C1458   1.402       .  A
C1457      H1460   1.085       .  S
C1458      C1461   1.443       .  S
C1461      N1463   1.157       .  T
C1462      N1464   1.157       .  T
C1465      C1466   1.404       .  A
C1465      C1470   1.414       .  A
C1466      C1467   1.399       .  A
C1466      H1471   1.085       .  S
C1467      C1468   1.416       .  A
C1467      C1474   1.445       .  S
C1468      C1469   1.407       .  A
C1469      C1470   1.403       .  A
C1469      H1472   1.085       .  S
C1470      C1473   1.444       .  S
C1473      N1475   1.157       .  T
C1474      N1476   1.157       .  T
C1477      C1478   1.405       .  A
C1477      C1482   1.414       .  A
C1478      C1479   1.401       .  A
C1478      H1483   1.085       .  S
C1479      C1480   1.415       .  A
C1479      C1486   1.444       .  S
C1480      C1481   1.405       .  A
C1481      C1482   1.398       .  A
C1481      H1484   1.085       .  S
C1482      C1485   1.444       .  S
C1485      N1487   1.157       .  T
C1486      N1488   1.157       .  T
C1489      C1490   1.405       .  A
C1489      C1494   1.414       .  A
C1490      C1491   1.403   1_545  A
C1490      H1495   1.085       .  S
C1491      C1492   1.415       .  A
C1491      C1498   1.444       .  S
C1492      C1493   1.404       .  A
C1493      C1494   1.397   1_565  A
C1493      H1496   1.085       .  S
C1494      C1497   1.444       .  S
C1497      N1499   1.157       .  T
C1498      N1500   1.157       .  T
C1501      C1502   1.406       .  A
C1501      C1506   1.415       .  A
C1502      C1503   1.402       .  A
C1502      H1507   1.085       .  S
C1503      C1504   1.416       .  A
C1503      C1510   1.444       .  S
C1504      C1505   1.405       .  A
C1505      C1506   1.400       .  A
C1505      H1508   1.085       .  S
C1506      C1509   1.444       .  S
C1509      N1511   1.157       .  T
C1510      N1512   1.157       .  T
C1513      C1514   1.404       .  A
C1513      C1518   1.414       .  A
C1514      C1515   1.401       .  A
C1514      H1519   1.085       .  S
C1515      C1516   1.416       .  A
C1515      C1522   1.445       .  S
C1516      C1517   1.404       .  A
C1517      C1518   1.402       .  A
C1517      H1520   1.085       .  S
C1518      C1521   1.444       .  S
C1521      N1523   1.157       .  T
C1522      N1524   1.158       .  T
C1525      C1526   1.404       .  A
C1525      C1530   1.414       .  A
C1526      C1527   1.402       .  A
C1526      H1531   1.085       .  S
C1527      C1528   1.416       .  A
C1527      C1534   1.444       .  S
C1528      C1529   1.405       .  A
C1529      C1530   1.402       .  A
C1529      H1532   1.085       .  S
C1530      C1533   1.444       .  S
C1533      N1535   1.157       .  T
C1534      N1536   1.157       .  T
C1537      C1538   1.404       .  A
C1537      C1542   1.416       .  A
C1538      C1539   1.399       .  A
C1538      H1543   1.085       .  S
C1539      C1540   1.414       .  A
C1539      C1546   1.445       .  S
C1540      C1541   1.405       .  A
C1541      C1542   1.402       .  A
C1541      H1544   1.085       .  S
C1542      C1545   1.444       .  S
C1545      N1547   1.157       .  T
C1546      N1548   1.157       .  T
C1549      C1550   1.403       .  A
C1549      C1554   1.414       .  A
C1550      C1551   1.397   1_545  A
C1550      H1555   1.085       .  S
C1551      C1552   1.415       .  A
C1551      C1558   1.445       .  S
C1552      C1553   1.405       .  A
C1553      C1554   1.400   1_565  A
C1553      H1556   1.085       .  S
C1554      C1557   1.444       .  S
C1557      N1559   1.157       .  T
C1558      N1560   1.157       .  T
C1561      C1562   1.405       .  A
C1561      C1566   1.416       .  A
C1562      C1563   1.397       .  A
C1562      H1567   1.085       .  S
C1563      C1564   1.414       .  A
C1563      C1570   1.445       .  S
C1564      C1565   1.406       .  A
C1565      C1566   1.404       .  A
C1565      H1568   1.085       .  S
C1566      C1569   1.444       .  S
C1569      N1571   1.157       .  T
C1570      N1572   1.157       .  T
C1573      C1574   1.406       .  A
C1573      C1578   1.415       .  A
C1574      C1575   1.400       .  A
C1574      H1579   1.085       .  S
C1575      C1576   1.415       .  A
C1575      C1582   1.445       .  S
C1576      C1577   1.405       .  A
C1577      C1578   1.400       .  A
C1577      H1580   1.085       .  S
C1578      C1581   1.444       .  S
C1581      N1583   1.157       .  T
C1582      N1584   1.158       .  T
C1585      C1586   1.405       .  A
C1585      C1590   1.414       .  A
C1586      C1587   1.401       .  A
C1586      H1591   1.085       .  S
C1587      C1588   1.415       .  A
C1587      C1594   1.444       .  S
C1588      C1589   1.405       .  A
C1589      C1590   1.399       .  A
C1589      H1592   1.085       .  S
C1590      C1593   1.445       .  S
C1593      N1595   1.157       .  T
C1594      N1596   1.157       .  T
C1597      C1598   1.405       .  A
C1597      C1602   1.415       .  A
C1598      C1599   1.397       .  A
C1598      H1603   1.085       .  S
C1599      C1600   1.415       .  A
C1599      C1606   1.445       .  S
C1600      C1601   1.406       .  A
C1601      C1602   1.402       .  A
C1601      H1604   1.085       .  S
C1602      C1605   1.444       .  S
C1605      N1607   1.157       .  T
C1606      N1608   1.157       .  T
C1609      C1610   1.405       .  A
C1609      C1614   1.416       .  A
C1610      C1611   1.401       .  A
C1610      H1615   1.085       .  S
C1611      C1612   1.415       .  A
C1611      C1618   1.444       .  S
C1612      C1613   1.405       .  A
C1613      C1614   1.401       .  A
C1613      H1616   1.085       .  S
C1614      C1617   1.444       .  S
C1617      N1619   1.157       .  T
C1618      N1620   1.157       .  T
C1621      C1622   1.407       .  A
C1621      C1626   1.417       .  A
C1622      C1623   1.405       .  A
C1622      H1627   1.085       .  S
C1623      C1624   1.416       .  A
C1623      C1630   1.444       .  S
C1624      C1625   1.404       .  A
C1625      C1626   1.398       .  A
C1625      H1628   1.085       .  S
C1626      C1629   1.445       .  S
C1629      N1631   1.157       .  T
C1630      N1632   1.157       .  T
C1633      C1634   1.406       .  A
C1633      C1638   1.415       .  A
C1634      C1635   1.401       .  A
C1634      H1639   1.085       .  S
C1635      C1636   1.414       .  A
C1635      C1642   1.445       .  S
C1636      C1637   1.404       .  A
C1637      C1638   1.400       .  A
C1637      H1640   1.085       .  S
C1638      C1641   1.444       .  S
C1641      N1643   1.157       .  T
C1642      N1644   1.157       .  T
C1645      C1646   1.406       .  A
C1645      C1650   1.417       .  A
C1646      C1647   1.403       .  A
C1646      H1651   1.084       .  S
C1647      C1648   1.412       .  A
C1647      C1654   1.444       .  S
C1648      C1649   1.402       .  A
C1649      C1650   1.399       .  A
C1649      H1652   1.085       .  S
C1650      C1653   1.445       .  S
C1653      N1655   1.157       .  T
C1654      N1656   1.157       .  T
C1657      C1658   1.404       .  A
C1657      C1662   1.415       .  A
C1658      C1659   1.400       .  A
C1658      H1663   1.085       .  S
C1659      C1660   1.414       .  A
C1659      C1666   1.444       .  S
C1660      C1661   1.403       .  A
C1661      C1662   1.400       .  A
C1661      H1664   1.085       .  S
C1662      C1665   1.445       .  S
C1665      N1667   1.157       .  T
C1666      N1668   1.157       .  T
C1669      C1670   1.405       .  A
C1669      C1674   1.416       .  A
C1670      C1671   1.401       .  A
C1670      H1675   1.085       .  S
C1671      C1672   1.415       .  A
C1671      C1678   1.444       .  S
C1672      C1673   1.405       .  A
C1673      C1674   1.400       .  A
C1673      H1676   1.085       .  S
C1674      C1677   1.444       .  S
C1677      N1679   1.157       .  T
C1678      N1680   1.157       .  T
C1681      C1682   1.404       .  A
C1681      C1686   1.414       .  A
C1682      C1683   1.399       .  A
C1682      H1687   1.085       .  S
C1683      C1684   1.415       .  A
C1683      C1690   1.444       .  S
C1684      C1685   1.407       .  A
C1685      C1686   1.401       .  A
C1685      H1688   1.085       .  S
C1686      C1689   1.445       .  S
C1689      N1691   1.157       .  T
C1690      N1692   1.157       .  T
C1693      C1694   1.406       .  A
C1693      C1698   1.416       .  A
C1694      C1695   1.402       .  A
C1694      H1699   1.085       .  S
C1695      C1696   1.414       .  A
C1695      C1702   1.444       .  S
C1696      C1697   1.405       .  A
C1697      C1698   1.403       .  A
C1697      H1700   1.085       .  S
C1698      C1701   1.444       .  S
C1701      N1703   1.157       .  T
C1702      N1704   1.157       .  T
C1705      C1706   1.407       .  A
C1705      C1710   1.416       .  A
C1706      C1707   1.404       .  A
C1706      H1711   1.084       .  S
C1707      C1708   1.416       .  A
C1707      C1714   1.444       .  S
C1708      C1709   1.405       .  A
C1709      C1710   1.400       .  A
C1709      H1712   1.085       .  S
C1710      C1713   1.444       .  S
C1713      N1715   1.157       .  T
C1714      N1716   1.157       .  T
C1717      C1718   1.404       .  A
C1717      C1722   1.414       .  A
C1718      C1719   1.400       .  A
C1718      H1723   1.085       .  S
C1719      C1720   1.417       .  A
C1719      C1726   1.445       .  S
C1720      C1721   1.407       .  A
C1721      C1722   1.404       .  A
C1721      H1724   1.084       .  S
C1722      C1725   1.444       .  S
C1725      N1727   1.157       .  T
C1726      N1728   1.157       .  T
C1729      C1730   1.405       .  A
C1729      C1734   1.414       .  A
C1730      C1731   1.400       .  A
C1730      H1735   1.085       .  S
C1731      C1732   1.416       .  A
C1731      C1738   1.445       .  S
C1732      C1733   1.406       .  A
C1733      C1734   1.403       .  A
C1733      H1736   1.085       .  S
C1734      C1737   1.444       .  S
C1737      N1739   1.157       .  T
C1738      N1740   1.157       .  T
C1741      C1742   1.405       .  A
C1741      C1746   1.415       .  A
C1742      C1743   1.401       .  A
C1742      H1747   1.085       .  S
C1743      C1744   1.415       .  A
C1743      C1750   1.445       .  S
C1744      C1745   1.405       .  A
C1745      C1746   1.404       .  A
C1745      H1748   1.085       .  S
C1746      C1749   1.444       .  S
C1749      N1751   1.157       .  T
C1750      N1752   1.158       .  T
C1753      C1754   1.407       .  A
C1753      C1758   1.415       .  A
C1754      C1755   1.406       .  A
C1754      H1759   1.085       .  S
C1755      C1756   1.417       .  A
C1755      C1762   1.444       .  S
C1756      C1757   1.403       .  A
C1757      C1758   1.396       .  A
C1757      H1760   1.085       .  S
C1758      C1761   1.444       .  S
C1761      N1763   1.157       .  T
C1762      N1764   1.158       .  T
C1765      C1766   1.405       .  A
C1765      C1770   1.414       .  A
C1766      C1767   1.403       .  A
C1766      H1771   1.085       .  S
C1767      C1768   1.416       .  A
C1767      C1774   1.444       .  S
C1768      C1769   1.406       .  A
C1769      C1770   1.401       .  A
C1769      H1772   1.085       .  S
C1770      C1773   1.444       .  S
C1773      N1775   1.157       .  T
C1774      N1776   1.157       .  T
C1777      C1778   1.406       .  A
C1777      C1782   1.415       .  A
C1778      C1779   1.402       .  A
C1778      H1783   1.085       .  S
C1779      C1780   1.415       .  A
C1779      C1786   1.444       .  S
C1780      C1781   1.407       .  A
C1781      C1782   1.402       .  A
C1781      H1784   1.085       .  S
C1782      C1785   1.445       .  S
C1785      N1787   1.157       .  T
C1786      N1788   1.157       .  T
C1789      C1790   1.406       .  A
C1789      C1794   1.416       .  A
C1790      C1791   1.402       .  A
C1790      H1795   1.085       .  S
C1791      C1792   1.416       .  A
C1791      C1798   1.445       .  S
C1792      C1793   1.406       .  A
C1793      C1794   1.405       .  A
C1793      H1796   1.085       .  S
C1794      C1797   1.444       .  S
C1797      N1799   1.157       .  T
C1798      N1800   1.157       .  T
C1801      C1802   1.406       .  A
C1801      C1806   1.415       .  A
C1802      C1803   1.402       .  A
C1802      H1807   1.085       .  S
C1803      C1804   1.415       .  A
C1803      C1810   1.444       .  S
C1804      C1805   1.405       .  A
C1805      C1806   1.399       .  A
C1805      H1808   1.085       .  S
C1806      C1809   1.445       .  S
C1809      N1811   1.157       .  T
C1810      N1812   1.157       .  T
C1813      C1814   1.407       .  A
C1813      C1818   1.416       .  A
C1814      C1815   1.403       .  A
C1814      H1819   1.085       .  S
C1815      C1816   1.415       .  A
C1815      C1822   1.444       .  S
C1816      C1817   1.405       .  A
C1817      C1818   1.401       .  A
C1817      H1820   1.085       .  S
C1818      C1821   1.444       .  S
C1821      N1823   1.157       .  T
C1822      N1824   1.157       .  T
C1825      C1826   1.405       .  A
C1825      C1830   1.416       .  A
C1826      C1827   1.398       .  A
C1826      H1831   1.085       .  S
C1827      C1828   1.415       .  A
C1827      C1834   1.445       .  S
C1828      C1829   1.406       .  A
C1829      C1830   1.405       .  A
C1829      H1832   1.085       .  S
C1830      C1833   1.444       .  S
C1833      N1835   1.157       .  T
C1834      N1836   1.157       .  T
C1837      C1838   1.404       .  A
C1837      C1842   1.415       .  A
C1838      C1839   1.401   1_655  A
C1838      H1843   1.085       .  S
C1839      C1840   1.416       .  A
C1839      C1846   1.444       .  S
C1840      C1841   1.405       .  A
C1841      C1842   1.400   1_455  A
C1841      H1844   1.085       .  S
C1842      C1845   1.445       .  S
C1845      N1847   1.157       .  T
C1846      N1848   1.157       .  T
C1849      C1850   1.405       .  A
C1849      C1854   1.415       .  A
C1850      C1851   1.400       .  A
C1850      H1855   1.085       .  S
C1851      C1852   1.415       .  A
C1851      C1858   1.444       .  S
C1852      C1853   1.407       .  A
C1853      C1854   1.404       .  A
C1853      H1856   1.085       .  S
C1854      C1857   1.444       .  S
C1857      N1859   1.157       .  T
C1858      N1860   1.157       .  T
C1861      C1862   1.406       .  A
C1861      C1866   1.416       .  A
C1862      C1863   1.403       .  A
C1862      H1867   1.084       .  S
C1863      C1864   1.415       .  A
C1863      C1870   1.443       .  S
C1864      C1865   1.404       .  A
C1865      C1866   1.398       .  A
C1865      H1868   1.085       .  S
C1866      C1869   1.445       .  S
C1869      N1871   1.157       .  T
C1870      N1872   1.157       .  T
C1873      C1874   1.406       .  A
C1873      C1878   1.415       .  A
C1874      C1875   1.400       .  A
C1874      H1879   1.085       .  S
C1875      C1876   1.416       .  A
C1875      C1882   1.445       .  S
C1876      C1877   1.406       .  A
C1877      C1878   1.403       .  A
C1877      H1880   1.085       .  S
C1878      C1881   1.444       .  S
C1881      N1883   1.157       .  T
C1882      N1884   1.158       .  T
C1885      C1886   1.404       .  A
C1885      C1890   1.414       .  A
C1886      C1887   1.399       .  A
C1886      H1891   1.085       .  S
C1887      C1888   1.416       .  A
C1887      C1894   1.445       .  S
C1888      C1889   1.406       .  A
C1889      C1890   1.402       .  A
C1889      H1892   1.085       .  S
C1890      C1893   1.444       .  S
C1893      N1895   1.157       .  T
C1894      N1896   1.157       .  T
C1897      C1898   1.407       .  A
C1897      C1902   1.416       .  A
C1898      C1899   1.404   1_655  A
C1898      H1903   1.085       .  S
C1899      C1900   1.416       .  A
C1899      C1906   1.444       .  S
C1900      C1901   1.405       .  A
C1901      C1902   1.402   1_455  A
C1901      H1904   1.085       .  S
C1902      C1905   1.444       .  S
C1905      N1907   1.157       .  T
C1906      N1908   1.157       .  T
C1909      C1910   1.406       .  A
C1909      C1914   1.416       .  A
C1910      C1911   1.403       .  A
C1910      H1915   1.085       .  S
C1911      C1912   1.416       .  A
C1911      C1918   1.444       .  S
C1912      C1913   1.405       .  A
C1913      C1914   1.401       .  A
C1913      H1916   1.085       .  S
C1914      C1917   1.444       .  S
C1917      N1919   1.157       .  T
C1918      N1920   1.157       .  T
C1921      C1922   1.405       .  A
C1921      C1926   1.414       .  A
C1922      C1923   1.402       .  A
C1922      H1927   1.085       .  S
C1923      C1924   1.413       .  A
C1923      C1930   1.443       .  S
C1924      C1925   1.405       .  A
C1925      C1926   1.400       .  A
C1925      H1928   1.085       .  S
C1926      C1929   1.445       .  S
C1929      N1931   1.158       .  T
C1930      N1932   1.157       .  T
C1933      C1934   1.407       .  A
C1933      C1938   1.414       .  A
C1934      C1935   1.401       .  A
C1934      H1939   1.085       .  S
C1935      C1936   1.416       .  A
C1935      C1942   1.445       .  S
C1936      C1937   1.406       .  A
C1937      C1938   1.402       .  A
C1937      H1940   1.085       .  S
C1938      C1941   1.443       .  S
C1941      N1943   1.157       .  T
C1942      N1944   1.158       .  T
C1945      C1946   1.408       .  A
C1945      C1950   1.416       .  A
C1946      C1947   1.406       .  A
C1946      H1951   1.084       .  S
C1947      C1948   1.416       .  A
C1947      C1954   1.444       .  S
C1948      C1949   1.406       .  A
C1949      C1950   1.403       .  A
C1949      H1952   1.085       .  S
C1950      C1953   1.444       .  S
C1953      N1955   1.157       .  T
C1954      N1956   1.157       .  T
C1957      C1958   1.405       .  A
C1957      C1962   1.415       .  A
C1958      C1959   1.398       .  A
C1958      H1963   1.085       .  S
C1959      C1960   1.414       .  A
C1959      C1966   1.444       .  S
C1960      C1961   1.405       .  A
C1961      C1962   1.402       .  A
C1961      H1964   1.085       .  S
C1962      C1965   1.445       .  S
C1965      N1967   1.158       .  T
C1966      N1968   1.157       .  T
C1969      C1970   1.406       .  A
C1969      C1974   1.417       .  A
C1970      C1971   1.403       .  A
C1970      H1975   1.085       .  S
C1971      C1972   1.415       .  A
C1971      C1978   1.444       .  S
C1972      C1973   1.405       .  A
C1973      C1974   1.401       .  A
C1973      H1976   1.085       .  S
C1974      C1977   1.445       .  S
C1977      N1979   1.158       .  T
C1978      N1980   1.157       .  T
C1981      C1982   1.407       .  A
C1981      C1986   1.414       .  A
C1982      C1983   1.398       .  A
C1982      H1987   1.085       .  S
C1983      C1984   1.412       .  A
C1983      C1990   1.445       .  S
C1984      C1985   1.405       .  A
C1985      C1986   1.403       .  A
C1985      H1988   1.085       .  S
C1986      C1989   1.443       .  S
C1989      N1991   1.157       .  T
C1990      N1992   1.158       .  T
C1993      C1994   1.406       .  A
C1993      C1998   1.414       .  A
C1994      C1995   1.402       .  A
C1994      H1999   1.085       .  S
C1995      C1996   1.416       .  A
C1995      C2002   1.444       .  S
C1996      C1997   1.405       .  A
C1997      C1998   1.400       .  A
C1997      H2000   1.085       .  S
C1998      C2001   1.444       .  S
C2001      N2003   1.157       .  T
C2002      N2004   1.157       .  T
C2005      C2006   1.403       .  A
C2005      C2010   1.413       .  A
C2006      C2007   1.398       .  A
C2006      H2011   1.085       .  S
C2007      C2008   1.416       .  A
C2007      C2014   1.444       .  S
C2008      C2009   1.407       .  A
C2009      C2010   1.403       .  A
C2009      H2012   1.085       .  S
C2010      C2013   1.444       .  S
C2013      N2015   1.157       .  T
C2014      N2016   1.157       .  T
C2017      C2018   1.406       .  A
C2017      C2022   1.416       .  A
C2018      C2019   1.403   1_655  A
C2018      H2023   1.085       .  S
C2019      C2020   1.417       .  A
C2019      C2026   1.444       .  S
C2020      C2021   1.406       .  A
C2021      C2022   1.404   1_455  A
C2021      H2024   1.085       .  S
C2022      C2025   1.444       .  S
C2025      N2027   1.157       .  T
C2026      N2028   1.157       .  T
C2029      C2030   1.404       .  A
C2029      C2034   1.417       .  A
C2030      C2031   1.401       .  A
C2030      H2035   1.085       .  S
C2031      C2032   1.416       .  A
C2031      C2038   1.444       .  S
C2032      C2033   1.405       .  A
C2033      C2034   1.400       .  A
C2033      H2036   1.085       .  S
C2034      C2037   1.445       .  S
C2037      N2039   1.158       .  T
C2038      N2040   1.157       .  T
C2041      C2042   1.405       .  A
C2041      C2046   1.416       .  A
C2042      C2043   1.400       .  A
C2042      H2047   1.085       .  S
C2043      C2044   1.416       .  A
C2043      C2050   1.444       .  S
C2044      C2045   1.405       .  A
C2045      C2046   1.401       .  A
C2045      H2048   1.085       .  S
C2046      C2049   1.444       .  S
C2049      N2051   1.157       .  T
C2050      N2052   1.157       .  T
C2053      C2054   1.405       .  A
C2053      C2058   1.416       .  A
C2054      C2055   1.400       .  A
C2054      H2059   1.085       .  S
C2055      C2056   1.416       .  A
C2055      C2062   1.444       .  S
C2056      C2057   1.407       .  A
C2057      C2058   1.404       .  A
C2057      H2060   1.085       .  S
C2058      C2061   1.444       .  S
C2061      N2063   1.157       .  T
C2062      N2064   1.157       .  T
C2065      C2066   1.407       .  A
C2065      C2070   1.416       .  A
C2066      C2067   1.404       .  A
C2066      H2071   1.084       .  S
C2067      C2068   1.415       .  A
C2067      C2074   1.443       .  S
C2068      C2069   1.406       .  A
C2069      C2070   1.402       .  A
C2069      H2072   1.085       .  S
C2070      C2073   1.445       .  S
C2073      N2075   1.157       .  T
C2074      N2076   1.157       .  T
C2077      C2078   1.406       .  A
C2077      C2082   1.414       .  A
C2078      C2079   1.399       .  A
C2078      H2083   1.085       .  S
C2079      C2080   1.414       .  A
C2079      C2086   1.445       .  S
C2080      C2081   1.405       .  A
C2081      C2082   1.402       .  A
C2081      H2084   1.085       .  S
C2082      C2085   1.444       .  S
C2085      N2087   1.157       .  T
C2086      N2088   1.157       .  T
C2089      C2090   1.403       .  A
C2089      C2094   1.415       .  A
C2090      C2091   1.402       .  A
C2090      H2095   1.085       .  S
C2091      C2092   1.417       .  A
C2091      C2098   1.444       .  S
C2092      C2093   1.406       .  A
C2093      C2094   1.402       .  A
C2093      H2096   1.085       .  S
C2094      C2097   1.445       .  S
C2097      N2099   1.158       .  T
C2098      N2100   1.157       .  T
C2101      C2102   1.406       .  A
C2101      C2106   1.416       .  A
C2102      C2103   1.404       .  A
C2102      H2107   1.085       .  S
C2103      C2104   1.416       .  A
C2103      C2110   1.444       .  S
C2104      C2105   1.404       .  A
C2105      C2106   1.400       .  A
C2105      H2108   1.085       .  S
C2106      C2109   1.444       .  S
C2109      N2111   1.157       .  T
C2110      N2112   1.157       .  T
C2113      C2114   1.404       .  A
C2113      C2118   1.413       .  A
C2114      C2115   1.399       .  A
C2114      H2119   1.085       .  S
C2115      C2116   1.415       .  A
C2115      C2122   1.444       .  S
C2116      C2117   1.407       .  A
C2117      C2118   1.402       .  A
C2117      H2120   1.085       .  S
C2118      C2121   1.444       .  S
C2121      N2123   1.157       .  T
C2122      N2124   1.157       .  T
C2125      C2126   1.405       .  A
C2125      C2130   1.413       .  A
C2126      C2127   1.403       .  A
C2126      H2131   1.085       .  S
C2127      C2128   1.414       .  A
C2127      C2134   1.443       .  S
C2128      C2129   1.405       .  A
C2129      C2130   1.401       .  A
C2129      H2132   1.085       .  S
C2130      C2133   1.445       .  S
C2133      N2135   1.158       .  T
C2134      N2136   1.157       .  T
C2137      C2138   1.406       .  A
C2137      C2142   1.415       .  A
C2138      C2139   1.400       .  A
C2138      H2143   1.085       .  S
C2139      C2140   1.414       .  A
C2139      C2146   1.445       .  S
C2140      C2141   1.404       .  A
C2141      C2142   1.404       .  A
C2141      H2144   1.085       .  S
C2142      C2145   1.443       .  S
C2145      N2147   1.157       .  T
C2146      N2148   1.157       .  T
C2149      C2150   1.407       .  A
C2149      C2154   1.416       .  A
C2150      C2151   1.404   1_565  A
C2150      H2155   1.085       .  S
C2151      C2152   1.415       .  A
C2151      C2158   1.444       .  S
C2152      C2153   1.404       .  A
C2153      C2154   1.400   1_545  A
C2153      H2156   1.085       .  S
C2154      C2157   1.444       .  S
C2157      N2159   1.157       .  T
C2158      N2160   1.158       .  T
C2161      C2162   1.406       .  A
C2161      C2166   1.417       .  A
C2162      C2163   1.401       .  A
C2162      H2167   1.085       .  S
C2163      C2164   1.414       .  A
C2163      C2170   1.444       .  S
C2164      C2165   1.405       .  A
C2165      C2166   1.404       .  A
C2165      H2168   1.085       .  S
C2166      C2169   1.444       .  S
C2169      N2171   1.157       .  T
C2170      N2172   1.157       .  T
C2173      C2174   1.403       .  A
C2173      C2178   1.414       .  A
C2174      C2175   1.400       .  A
C2174      H2179   1.085       .  S
C2175      C2176   1.417       .  A
C2175      C2182   1.445       .  S
C2176      C2177   1.406       .  A
C2177      C2178   1.403       .  A
C2177      H2180   1.085       .  S
C2178      C2181   1.444       .  S
C2181      N2183   1.157       .  T
C2182      N2184   1.157       .  T
C2185      C2186   1.404       .  A
C2185      C2190   1.415       .  A
C2186      C2187   1.399       .  A
C2186      H2191   1.085       .  S
C2187      C2188   1.415       .  A
C2187      C2194   1.444       .  S
C2188      C2189   1.405       .  A
C2189      C2190   1.403       .  A
C2189      H2192   1.085       .  S
C2190      C2193   1.444       .  S
C2193      N2195   1.157       .  T
C2194      N2196   1.157       .  T
C2197      C2198   1.406       .  A
C2197      C2202   1.416       .  A
C2198      C2199   1.402   1_545  A
C2198      H2203   1.085       .  S
C2199      C2200   1.414       .  A
C2199      C2206   1.443       .  S
C2200      C2201   1.407       .  A
C2201      C2202   1.403   1_565  A
C2201      H2204   1.085       .  S
C2202      C2205   1.445       .  S
C2205      N2207   1.158       .  T
C2206      N2208   1.157       .  T
C2209      C2210   1.405       .  A
C2209      C2214   1.415       .  A
C2210      C2211   1.401       .  A
C2210      H2215   1.085       .  S
C2211      C2212   1.414       .  A
C2211      C2218   1.444       .  S
C2212      C2213   1.406       .  A
C2213      C2214   1.402       .  A
C2213      H2216   1.085       .  S
C2214      C2217   1.444       .  S
C2217      N2219   1.157       .  T
C2218      N2220   1.157       .  T
C2221      C2222   1.405       .  A
C2221      C2226   1.415       .  A
C2222      C2223   1.400       .  A
C2222      H2227   1.085       .  S
C2223      C2224   1.416       .  A
C2223      C2230   1.445       .  S
C2224      C2225   1.406       .  A
C2225      C2226   1.404       .  A
C2225      H2228   1.085       .  S
C2226      C2229   1.444       .  S
C2229      N2231   1.157       .  T
C2230      N2232   1.157       .  T
C2233      C2234   1.405       .  A
C2233      C2238   1.414       .  A
C2234      C2235   1.399       .  A
C2234      H2239   1.085       .  S
C2235      C2236   1.414       .  A
C2235      C2242   1.444       .  S
C2236      C2237   1.406       .  A
C2237      C2238   1.400       .  A
C2237      H2240   1.085       .  S
C2238      C2241   1.444       .  S
C2241      N2243   1.157       .  T
C2242      N2244   1.157       .  T
C2245      C2246   1.404       .  A
C2245      C2250   1.414       .  A
C2246      C2247   1.399   1_655  A
C2246      H2251   1.085       .  S
C2247      C2248   1.417       .  A
C2247      C2254   1.445       .  S
C2248      C2249   1.406       .  A
C2249      C2250   1.402   1_455  A
C2249      H2252   1.085       .  S
C2250      C2253   1.444       .  S
C2253      N2255   1.157       .  T
C2254      N2256   1.157       .  T
C2257      C2258   1.405       .  A
C2257      C2262   1.416       .  A
C2258      C2259   1.401       .  A
C2258      H2263   1.085       .  S
C2259      C2260   1.416       .  A
C2259      C2266   1.444       .  S
C2260      C2261   1.407       .  A
C2261      C2262   1.403       .  A
C2261      H2264   1.085       .  S
C2262      C2265   1.445       .  S
C2265      N2267   1.158       .  T
C2266      N2268   1.157       .  T
C2269      C2270   1.403       .  A
C2269      C2274   1.412       .  A
C2270      C2271   1.400       .  A
C2270      H2275   1.085       .  S
C2271      C2272   1.414       .  A
C2271      C2278   1.444       .  S
C2272      C2273   1.405       .  A
C2273      C2274   1.399       .  A
C2273      H2276   1.085       .  S
C2274      C2277   1.445       .  S
C2277      N2279   1.157       .  T
C2278      N2280   1.157       .  T
C2281      C2282   1.405       .  A
C2281      C2286   1.415       .  A
C2282      C2283   1.399       .  A
C2282      H2287   1.085       .  S
C2283      C2284   1.414       .  A
C2283      C2290   1.444       .  S
C2284      C2285   1.406       .  A
C2285      C2286   1.401       .  A
C2285      H2288   1.085       .  S
C2286      C2289   1.444       .  S
C2289      N2291   1.157       .  T
C2290      N2292   1.157       .  T
C2293      C2294   1.405       .  A
C2293      C2298   1.415       .  A
C2294      C2295   1.399       .  A
C2294      H2299   1.085       .  S
C2295      C2296   1.414       .  A
C2295      C2302   1.444       .  S
C2296      C2297   1.406       .  A
C2297      C2298   1.400       .  A
C2297      H2300   1.085       .  S
C2298      C2301   1.445       .  S
C2301      N2303   1.157       .  T
C2302      N2304   1.157       .  T
C2305      C2306   1.405       .  A
C2305      C2310   1.415       .  A
C2306      C2307   1.399       .  A
C2306      H2311   1.085       .  S
C2307      C2308   1.416       .  A
C2307      C2314   1.444       .  S
C2308      C2309   1.407       .  A
C2309      C2310   1.403       .  A
C2309      H2312   1.085       .  S
C2310      C2313   1.444       .  S
C2313      N2315   1.157       .  T
C2314      N2316   1.157       .  T
C2317      C2318   1.405       .  A
C2317      C2322   1.413       .  A
C2318      C2319   1.403       .  A
C2318      H2323   1.085       .  S
C2319      C2320   1.416       .  A
C2319      C2326   1.444       .  S
C2320      C2321   1.405       .  A
C2321      C2322   1.398       .  A
C2321      H2324   1.085       .  S
C2322      C2325   1.444       .  S
C2325      N2327   1.157       .  T
C2326      N2328   1.157       .  T
C2329      C2330   1.405       .  A
C2329      C2334   1.417       .  A
C2330      C2331   1.399       .  A
C2330      H2335   1.085       .  S
C2331      C2332   1.413       .  A
C2331      C2338   1.444       .  S
C2332      C2333   1.406       .  A
C2333      C2334   1.405       .  A
C2333      H2336   1.085       .  S
C2334      C2337   1.445       .  S
C2337      N2339   1.158       .  T
C2338      N2340   1.157       .  T
C2341      C2342   1.406       .  A
C2341      C2346   1.416       .  A
C2342      C2343   1.401       .  A
C2342      H2347   1.085       .  S
C2343      C2344   1.415       .  A
C2343      C2350   1.444       .  S
C2344      C2345   1.405       .  A
C2345      C2346   1.401       .  A
C2345      H2348   1.085       .  S
C2346      C2349   1.444       .  S
C2349      N2351   1.157       .  T
C2350      N2352   1.157       .  T
C2353      C2354   1.406       .  A
C2353      C2358   1.415       .  A
C2354      C2355   1.401       .  A
C2354      H2359   1.085       .  S
C2355      C2356   1.415       .  A
C2355      C2362   1.444       .  S
C2356      C2357   1.405       .  A
C2357      C2358   1.401       .  A
C2357      H2360   1.085       .  S
C2358      C2361   1.444       .  S
C2361      N2363   1.157       .  T
C2362      N2364   1.157       .  T
C2365      C2366   1.405       .  A
C2365      C2370   1.416       .  A
C2366      C2367   1.402   1_556  A
C2366      H2371   1.084       .  S
C2367      C2368   1.415       .  A
C2367      C2374   1.444       .  S
C2368      C2369   1.405       .  A
C2369      C2370   1.400   1_554  A
C2369      H2372   1.085       .  S
C2370      C2373   1.445       .  S
C2373      N2375   1.157       .  T
C2374      N2376   1.157       .  T
C2377      C2378   1.405       .  A
C2377      C2382   1.415       .  A
C2378      C2379   1.402       .  A
C2378      H2383   1.085       .  S
C2379      C2380   1.415       .  A
C2379      C2386   1.443       .  S
C2380      C2381   1.406       .  A
C2381      C2382   1.401       .  A
C2381      H2384   1.085       .  S
C2382      C2385   1.445       .  S
C2385      N2387   1.158       .  T
C2386      N2388   1.157       .  T
C2389      C2390   1.404       .  A
C2389      C2394   1.413       .  A
C2390      C2391   1.397       .  A
C2390      H2395   1.085       .  S
C2391      C2392   1.415       .  A
C2391      C2398   1.445       .  S
C2392      C2393   1.405       .  A
C2393      C2394   1.402       .  A
C2393      H2396   1.085       .  S
C2394      C2397   1.444       .  S
C2397      N2399   1.157       .  T
C2398      N2400   1.157       .  T
C2401      C2402   1.403       .  A
C2401      C2406   1.416       .  A
C2402      C2403   1.398       .  A
C2402      H2407   1.085       .  S
C2403      C2404   1.417       .  A
C2403      C2410   1.444       .  S
C2404      C2405   1.406       .  A
C2405      C2406   1.405       .  A
C2405      H2408   1.085       .  S
C2406      C2409   1.444       .  S
C2409      N2411   1.157       .  T
C2410      N2412   1.157       .  T
C2413      C2414   1.405       .  A
C2413      C2418   1.416       .  A
C2414      C2415   1.400       .  A
C2414      H2419   1.085       .  S
C2415      C2416   1.415       .  A
C2415      C2422   1.444       .  S
C2416      C2417   1.406       .  A
C2417      C2418   1.403       .  A
C2417      H2420   1.085       .  S
C2418      C2421   1.444       .  S
C2421      N2423   1.157       .  T
C2422      N2424   1.157       .  T
C2425      C2426   1.405       .  A
C2425      C2430   1.413       .  A
C2426      C2427   1.401       .  A
C2426      H2431   1.085       .  S
C2427      C2428   1.415       .  A
C2427      C2434   1.444       .  S
C2428      C2429   1.405       .  A
C2429      C2430   1.397       .  A
C2429      H2432   1.085       .  S
C2430      C2433   1.445       .  S
C2433      N2435   1.157       .  T
C2434      N2436   1.157       .  T
C2437      C2438   1.406       .  A
C2437      C2442   1.417       .  A
C2438      C2439   1.401       .  A
C2438      H2443   1.085       .  S
C2439      C2440   1.416       .  A
C2439      C2446   1.444       .  S
C2440      C2441   1.407       .  A
C2441      C2442   1.405       .  A
C2441      H2444   1.085       .  S
C2442      C2445   1.444       .  S
C2445      N2447   1.157       .  T
C2446      N2448   1.157       .  T
C2449      C2450   1.404       .  A
C2449      C2454   1.415       .  A
C2450      C2451   1.403       .  A
C2450      H2455   1.089       .  S
C2451      C2452   1.415       .  A
C2451      C2458   1.444       .  S
C2452      C2453   1.405       .  A
C2453      C2454   1.400       .  A
C2453      H2456   1.088       .  S
C2454      C2457   1.445       .  S
C2457      N2459   1.157       .  T
C2458      N2460   1.157       .  T
C2461      C2462   1.404       .  A
C2461      C2466   1.415       .  A
C2462      C2463   1.399       .  A
C2462      H2467   1.085       .  S
C2463      C2464   1.416       .  A
C2463      C2470   1.445       .  S
C2464      C2465   1.406       .  A
C2465      C2466   1.402       .  A
C2465      H2468   1.085       .  S
C2466      C2469   1.444       .  S
C2469      N2471   1.157       .  T
C2470      N2472   1.157       .  T
C2473      C2474   1.406       .  A
C2473      C2478   1.415       .  A
C2474      C2475   1.403       .  A
C2474      H2479   1.085       .  S
C2475      C2476   1.416       .  A
C2475      C2482   1.445       .  S
C2476      C2477   1.404       .  A
C2477      C2478   1.401       .  A
C2477      H2480   1.085       .  S
C2478      C2481   1.443       .  S
C2481      N2483   1.157       .  T
C2482      N2484   1.158       .  T
C2485      C2486   1.407       .  A
C2485      C2490   1.413       .  A
C2486      C2487   1.401       .  A
C2486      H2491   1.085       .  S
C2487      C2488   1.413       .  A
C2487      C2494   1.445       .  S
C2488      C2489   1.404       .  A
C2489      C2490   1.400       .  A
C2489      H2492   1.085       .  S
C2490      C2493   1.443       .  S
C2493      N2495   1.157       .  T
C2494      N2496   1.158       .  T
C2497      C2498   1.404       .  A
C2497      C2502   1.415       .  A
C2498      C2499   1.396       .  A
C2498      H2503   1.085       .  S
C2499      C2500   1.415       .  A
C2499      C2506   1.445       .  S
C2500      C2501   1.406       .  A
C2501      C2502   1.401       .  A
C2501      H2504   1.085       .  S
C2502      C2505   1.444       .  S
C2505      N2507   1.157       .  T
C2506      N2508   1.157       .  T
C2509      C2510   1.405       .  A
C2509      C2514   1.414       .  A
C2510      C2511   1.402   1_556  A
C2510      H2515   1.085       .  S
C2511      C2512   1.414       .  A
C2511      C2518   1.444       .  S
C2512      C2513   1.404       .  A
C2513      C2514   1.396   1_554  A
C2513      H2516   1.085       .  S
C2514      C2517   1.445       .  S
C2517      N2519   1.157       .  T
C2518      N2520   1.157       .  T
C2521      C2522   1.404       .  A
C2521      C2526   1.415       .  A
C2522      C2523   1.397       .  A
C2522      H2527   1.085       .  S
C2523      C2524   1.415       .  A
C2523      C2530   1.444       .  S
C2524      C2525   1.407       .  A
C2525      C2526   1.404       .  A
C2525      H2528   1.085       .  S
C2526      C2529   1.444       .  S
C2529      N2531   1.158       .  T
C2530      N2532   1.157       .  T
C2533      C2534   1.405       .  A
C2533      C2538   1.415       .  A
C2534      C2535   1.400       .  A
C2534      H2539   1.085       .  S
C2535      C2536   1.415       .  A
C2535      C2542   1.444       .  S
C2536      C2537   1.406       .  A
C2537      C2538   1.401       .  A
C2537      H2540   1.085       .  S
C2538      C2541   1.445       .  S
C2541      N2543   1.158       .  T
C2542      N2544   1.157       .  T
C2545      C2546   1.407       .  A
C2545      C2550   1.414       .  A
C2546      C2547   1.401       .  A
C2546      H2551   1.085       .  S
C2547      C2548   1.415       .  A
C2547      C2554   1.445       .  S
C2548      C2549   1.405       .  A
C2549      C2550   1.401       .  A
C2549      H2552   1.085       .  S
C2550      C2553   1.443       .  S
C2553      N2555   1.157       .  T
C2554      N2556   1.158       .  T
C2557      C2558   1.406       .  A
C2557      C2562   1.414       .  A
C2558      C2559   1.399       .  A
C2558      H2563   1.085       .  S
C2559      C2560   1.416       .  A
C2559      C2566   1.445       .  S
C2560      C2561   1.405       .  A
C2561      C2562   1.402       .  A
C2561      H2564   1.085       .  S
C2562      C2565   1.443       .  S
C2565      N2567   1.157       .  T
C2566      N2568   1.158       .  T
C2569      C2570   1.405       .  A
C2569      C2574   1.415       .  A
C2570      C2571   1.402   1_655  A
C2570      H2575   1.085       .  S
C2571      C2572   1.417       .  A
C2571      C2578   1.444       .  S
C2572      C2573   1.406       .  A
C2573      C2574   1.403   1_455  A
C2573      H2576   1.085       .  S
C2574      C2577   1.444       .  S
C2577      N2579   1.157       .  T
C2578      N2580   1.157       .  T
C2581      C2582   1.406       .  A
C2581      C2586   1.416       .  A
C2582      C2583   1.399       .  A
C2582      H2587   1.085       .  S
C2583      C2584   1.413       .  A
C2583      C2590   1.445       .  S
C2584      C2585   1.405       .  A
C2585      C2586   1.404       .  A
C2585      H2588   1.085       .  S
C2586      C2589   1.444       .  S
C2589      N2591   1.157       .  T
C2590      N2592   1.157       .  T
C2593      C2594   1.405       .  A
C2593      C2598   1.417       .  A
C2594      C2595   1.402   1_556  A
C2594      H2599   1.085       .  S
C2595      C2596   1.416       .  A
C2595      C2602   1.443       .  S
C2596      C2597   1.407       .  A
C2597      C2598   1.405   1_554  A
C2597      H2600   1.085       .  S
C2598      C2601   1.444       .  S
C2601      N2603   1.158       .  T
C2602      N2604   1.157       .  T
C2605      C2606   1.407       .  A
C2605      C2610   1.416       .  A
C2606      C2607   1.404       .  A
C2606      H2611   1.085       .  S
C2607      C2608   1.416       .  A
C2607      C2614   1.444       .  S
C2608      C2609   1.406       .  A
C2609      C2610   1.404       .  A
C2609      H2612   1.085       .  S
C2610      C2613   1.444       .  S
C2613      N2615   1.157       .  T
C2614      N2616   1.157       .  T
C2617      C2618   1.403       .  A
C2617      C2622   1.415       .  A
C2618      C2619   1.398       .  A
C2618      H2623   1.085       .  S
C2619      C2620   1.413       .  A
C2619      C2626   1.444       .  S
C2620      C2621   1.406       .  A
C2621      C2622   1.402       .  A
C2621      H2624   1.085       .  S
C2622      C2625   1.445       .  S
C2625      N2627   1.158       .  T
C2626      N2628   1.157       .  T
C2629      C2630   1.406       .  A
C2629      C2634   1.414       .  A
C2630      C2631   1.403       .  A
C2630      H2635   1.085       .  S
C2631      C2632   1.417       .  A
C2631      C2638   1.445       .  S
C2632      C2633   1.405       .  A
C2633      C2634   1.402       .  A
C2633      H2636   1.085       .  S
C2634      C2637   1.444       .  S
C2637      N2639   1.157       .  T
C2638      N2640   1.158       .  T
C2641      C2642   1.406       .  A
C2641      C2646   1.416       .  A
C2642      C2643   1.405       .  A
C2642      H2647   1.085       .  S
C2643      C2644   1.416       .  A
C2643      C2650   1.444       .  S
C2644      C2645   1.404       .  A
C2645      C2646   1.399       .  A
C2645      H2648   1.085       .  S
C2646      C2649   1.445       .  S
C2649      N2651   1.157       .  T
C2650      N2652   1.157       .  T
C2653      C2654   1.405       .  A
C2653      C2658   1.417       .  A
C2654      C2655   1.402   1_556  A
C2654      H2659   1.085       .  S
C2655      C2656   1.417       .  A
C2655      C2662   1.444       .  S
C2656      C2657   1.407       .  A
C2657      C2658   1.407   1_554  A
C2657      H2660   1.084       .  S
C2658      C2661   1.444       .  S
C2661      N2663   1.157       .  T
C2662      N2664   1.157       .  T
C2665      C2666   1.406       .  A
C2665      C2670   1.417       .  A
C2666      C2667   1.404       .  A
C2666      H2671   1.085       .  S
C2667      C2668   1.416       .  A
C2667      C2674   1.444       .  S
C2668      C2669   1.404       .  A
C2669      C2670   1.403       .  A
C2669      H2672   1.085       .  S
C2670      C2673   1.444       .  S
C2673      N2675   1.157       .  T
C2674      N2676   1.157       .  T
C2677      C2678   1.406       .  A
C2677      C2682   1.417       .  A
C2678      C2679   1.403       .  A
C2678      H2683   1.084       .  S
C2679      C2680   1.414       .  A
C2679      C2686   1.443       .  S
C2680      C2681   1.405       .  A
C2681      C2682   1.399       .  A
C2681      H2684   1.085       .  S
C2682      C2685   1.445       .  S
C2685      N2687   1.157       .  T
C2686      N2688   1.157       .  T
C2689      C2690   1.406       .  A
C2689      C2694   1.415       .  A
C2690      C2691   1.404       .  A
C2690      H2695   1.085       .  S
C2691      C2692   1.416       .  A
C2691      C2698   1.444       .  S
C2692      C2693   1.406       .  A
C2693      C2694   1.401       .  A
C2693      H2696   1.085       .  S
C2694      C2697   1.445       .  S
C2697      N2699   1.157       .  T
C2698      N2700   1.157       .  T
C2701      C2702   1.408       .  A
C2701      C2706   1.416       .  A
C2702      C2703   1.409       .  A
C2702      H2707   1.084       .  S
C2703      C2704   1.417       .  A
C2703      C2710   1.444       .  S
C2704      C2705   1.404       .  A
C2705      C2706   1.400       .  A
C2705      H2708   1.085       .  S
C2706      C2709   1.444       .  S
C2709      N2711   1.157       .  T
C2710      N2712   1.158       .  T
C2713      C2714   1.406       .  A
C2713      C2718   1.416       .  A
C2714      C2715   1.403       .  A
C2714      H2719   1.085       .  S
C2715      C2716   1.414       .  A
C2715      C2722   1.444       .  S
C2716      C2717   1.403       .  A
C2717      C2718   1.400       .  A
C2717      H2720   1.085       .  S
C2718      C2721   1.444       .  S
C2721      N2723   1.157       .  T
C2722      N2724   1.157       .  T
C2725      C2726   1.405       .  A
C2725      C2730   1.417       .  A
C2726      C2727   1.401       .  A
C2726      H2731   1.085       .  S
C2727      C2728   1.415       .  A
C2727      C2734   1.444       .  S
C2728      C2729   1.406       .  A
C2729      C2730   1.404       .  A
C2729      H2732   1.085       .  S
C2730      C2733   1.445       .  S
C2733      N2735   1.158       .  T
C2734      N2736   1.157       .  T
C2737      C2738   1.406       .  A
C2737      C2742   1.415       .  A
C2738      C2739   1.402       .  A
C2738      H2743   1.085       .  S
C2739      C2740   1.414       .  A
C2739      C2746   1.444       .  S
C2740      C2741   1.406       .  A
C2741      C2742   1.400       .  A
C2741      H2744   1.085       .  S
C2742      C2745   1.445       .  S
C2745      N2747   1.157       .  T
C2746      N2748   1.157       .  T
C2749      C2750   1.404       .  A
C2749      C2754   1.415       .  A
C2750      C2751   1.399       .  A
C2750      H2755   1.085       .  S
C2751      C2752   1.416       .  A
C2751      C2758   1.444       .  S
C2752      C2753   1.406       .  A
C2753      C2754   1.403       .  A
C2753      H2756   1.085       .  S
C2754      C2757   1.444       .  S
C2757      N2759   1.157       .  T
C2758      N2760   1.157       .  T
C2761      C2762   1.405       .  A
C2761      C2766   1.416       .  A
C2762      C2763   1.401   1_655  A
C2762      H2767   1.085       .  S
C2763      C2764   1.416       .  A
C2763      C2770   1.444       .  S
C2764      C2765   1.405       .  A
C2765      C2766   1.402   1_455  A
C2765      H2768   1.085       .  S
C2766      C2769   1.444       .  S
C2769      N2771   1.157       .  T
C2770      N2772   1.157       .  T
C2773      C2774   1.406       .  A
C2773      C2778   1.415       .  A
C2774      C2775   1.402       .  A
C2774      H2779   1.085       .  S
C2775      C2776   1.416       .  A
C2775      C2782   1.444       .  S
C2776      C2777   1.405       .  A
C2777      C2778   1.402       .  A
C2777      H2780   1.085       .  S
C2778      C2781   1.444       .  S
C2781      N2783   1.157       .  T
C2782      N2784   1.157       .  T
C2785      C2786   1.406       .  A
C2785      C2790   1.415       .  A
C2786      C2787   1.403       .  A
C2786      H2791   1.085       .  S
C2787      C2788   1.415       .  A
C2787      C2794   1.444       .  S
C2788      C2789   1.406       .  A
C2789      C2790   1.400       .  A
C2789      H2792   1.085       .  S
C2790      C2793   1.444       .  S
C2793      N2795   1.157       .  T
C2794      N2796   1.157       .  T
C2797      C2798   1.406       .  A
C2797      C2802   1.414       .  A
C2798      C2799   1.403       .  A
C2798      H2803   1.085       .  S
C2799      C2800   1.416       .  A
C2799      C2806   1.445       .  S
C2800      C2801   1.406       .  A
C2801      C2802   1.403       .  A
C2801      H2804   1.085       .  S
C2802      C2805   1.443       .  S
C2805      N2807   1.157       .  T
C2806      N2808   1.158       .  T
C2809      C2810   1.407       .  A
C2809      C2814   1.416       .  A
C2810      C2811   1.403       .  A
C2810      H2815   1.085       .  S
C2811      C2812   1.415       .  A
C2811      C2818   1.444       .  S
C2812      C2813   1.405       .  A
C2813      C2814   1.400       .  A
C2813      H2816   1.085       .  S
C2814      C2817   1.444       .  S
C2817      N2819   1.157       .  T
C2818      N2820   1.157       .  T
C2821      C2822   1.404       .  A
C2821      C2826   1.413       .  A
C2822      C2823   1.401       .  A
C2822      H2827   1.085       .  S
C2823      C2824   1.417       .  A
C2823      C2830   1.444       .  S
C2824      C2825   1.406       .  A
C2825      C2826   1.402       .  A
C2825      H2828   1.085       .  S
C2826      C2829   1.444       .  S
C2829      N2831   1.157       .  T
C2830      N2832   1.157       .  T
C2833      C2834   1.406       .  A
C2833      C2838   1.415       .  A
C2834      C2835   1.400       .  A
C2834      H2839   1.085       .  S
C2835      C2836   1.414       .  A
C2835      C2842   1.445       .  S
C2836      C2837   1.405       .  A
C2837      C2838   1.400       .  A
C2837      H2840   1.085       .  S
C2838      C2841   1.444       .  S
C2841      N2843   1.157       .  T
C2842      N2844   1.157       .  T
C2845      C2846   1.403       .  A
C2845      C2850   1.414       .  A
C2846      C2847   1.398       .  A
C2846      H2851   1.085       .  S
C2847      C2848   1.417       .  A
C2847      C2854   1.445       .  S
C2848      C2849   1.406       .  A
C2849      C2850   1.404       .  A
C2849      H2852   1.085       .  S
C2850      C2853   1.444       .  S
C2853      N2855   1.157       .  T
C2854      N2856   1.157       .  T
C2857      C2858   1.406       .  A
C2857      C2862   1.415       .  A
C2858      C2859   1.401       .  A
C2858      H2863   1.085       .  S
C2859      C2860   1.415       .  A
C2859      C2866   1.444       .  S
C2860      C2861   1.407       .  A
C2861      C2862   1.404       .  A
C2861      H2864   1.084       .  S
C2862      C2865   1.444       .  S
C2865      N2867   1.157       .  T
C2866      N2868   1.157       .  T
C2869      C2870   1.404       .  A
C2869      C2874   1.414       .  A
C2870      C2871   1.402       .  A
C2870      H2875   1.085       .  S
C2871      C2872   1.415       .  A
C2871      C2878   1.444       .  S
C2872      C2873   1.404       .  A
C2873      C2874   1.398       .  A
C2873      H2876   1.085       .  S
C2874      C2877   1.445       .  S
C2877      N2879   1.158       .  T
C2878      N2880   1.157       .  T
C2881      C2882   1.406       .  A
C2881      C2886   1.414       .  A
C2882      C2883   1.403   1_565  A
C2882      H2887   1.085       .  S
C2883      C2884   1.417       .  A
C2883      C2890   1.445       .  S
C2884      C2885   1.406       .  A
C2885      C2886   1.402   1_545  A
C2885      H2888   1.085       .  S
C2886      C2889   1.443       .  S
C2889      N2891   1.157       .  T
C2890      N2892   1.158       .  T
C2893      C2894   1.404       .  A
C2893      C2898   1.415       .  A
C2894      C2895   1.397       .  A
C2894      H2899   1.085       .  S
C2895      C2896   1.416       .  A
C2895      C2902   1.444       .  S
C2896      C2897   1.407       .  A
C2897      C2898   1.405       .  A
C2897      H2900   1.084       .  S
C2898      C2901   1.444       .  S
C2901      N2903   1.157       .  T
C2902      N2904   1.157       .  T
C2905      C2906   1.406       .  A
C2905      C2910   1.415       .  A
C2906      C2907   1.401   1_556  A
C2906      H2911   1.085       .  S
C2907      C2908   1.415       .  A
C2907      C2914   1.445       .  S
C2908      C2909   1.404       .  A
C2909      C2910   1.400   1_554  A
C2909      H2912   1.085       .  S
C2910      C2913   1.444       .  S
C2913      N2915   1.157       .  T
C2914      N2916   1.158       .  T
C2917      C2918   1.404       .  A
C2917      C2922   1.416       .  A
C2918      C2919   1.399       .  A
C2918      H2923   1.085       .  S
C2919      C2920   1.415       .  A
C2919      C2926   1.444       .  S
C2920      C2921   1.405       .  A
C2921      C2922   1.401       .  A
C2921      H2924   1.085       .  S
C2922      C2925   1.445       .  S
C2925      N2927   1.157       .  T
C2926      N2928   1.157       .  T
C2929      C2930   1.404       .  A
C2929      C2934   1.415       .  A
C2930      C2931   1.396       .  A
C2930      H2935   1.085       .  S
C2931      C2932   1.414       .  A
C2931      C2938   1.444       .  S
C2932      C2933   1.406       .  A
C2933      C2934   1.404       .  A
C2933      H2936   1.085       .  S
C2934      C2937   1.444       .  S
C2937      N2939   1.158       .  T
C2938      N2940   1.157       .  T
C2941      C2942   1.404       .  A
C2941      C2946   1.416       .  A
C2942      C2943   1.400       .  A
C2942      H2947   1.085       .  S
C2943      C2944   1.413       .  A
C2943      C2950   1.444       .  S
C2944      C2945   1.403       .  A
C2945      C2946   1.400       .  A
C2945      H2948   1.085       .  S
C2946      C2949   1.445       .  S
C2949      N2951   1.158       .  T
C2950      N2952   1.157       .  T
C2953      C2954   1.407       .  A
C2953      C2958   1.415       .  A
C2954      C2955   1.404       .  A
C2954      H2959   1.085       .  S
C2955      C2956   1.416       .  A
C2955      C2962   1.445       .  S
C2956      C2957   1.405       .  A
C2957      C2958   1.401       .  A
C2957      H2960   1.085       .  S
C2958      C2961   1.444       .  S
C2961      N2963   1.157       .  T
C2962      N2964   1.158       .  T
C2965      C2966   1.406       .  A
C2965      C2970   1.417       .  A
C2966      C2967   1.405       .  A
C2966      H2971   1.084       .  S
C2967      C2968   1.416       .  A
C2967      C2974   1.444       .  S
C2968      C2969   1.405       .  A
C2969      C2970   1.401       .  A
C2969      H2972   1.085       .  S
C2970      C2973   1.445       .  S
C2973      N2975   1.157       .  T
C2974      N2976   1.157       .  T
C2977      C2978   1.405       .  A
C2977      C2982   1.414       .  A
C2978      C2979   1.400       .  A
C2978      H2983   1.085       .  S
C2979      C2980   1.414       .  A
C2979      C2986   1.444       .  S
C2980      C2981   1.406       .  A
C2981      C2982   1.400       .  A
C2981      H2984   1.085       .  S
C2982      C2985   1.444       .  S
C2985      N2987   1.157       .  T
C2986      N2988   1.157       .  T
C2989      C2990   1.403       .  A
C2989      C2994   1.414       .  A
C2990      C2991   1.401   1_556  A
C2990      H2995   1.085       .  S
C2991      C2992   1.417       .  A
C2991      C2998   1.444       .  S
C2992      C2993   1.405       .  A
C2993      C2994   1.399   1_554  A
C2993      H2996   1.085       .  S
C2994      C2997   1.445       .  S
C2997      N2999   1.157       .  T
C2998      N3000   1.157       .  T
C3001      C3002   1.405       .  A
C3001      C3006   1.415       .  A
C3002      C3003   1.399       .  A
C3002      H3007   1.085       .  S
C3003      C3004   1.414       .  A
C3003      C3010   1.444       .  S
C3004      C3005   1.405       .  A
C3005      C3006   1.400       .  A
C3005      H3008   1.085       .  S
C3006      C3009   1.444       .  S
C3009      N3011   1.157       .  T
C3010      N3012   1.157       .  T
C3013      C3014   1.405       .  A
C3013      C3018   1.416       .  A
C3014      C3015   1.404       .  A
C3014      H3019   1.085       .  S
C3015      C3016   1.417       .  A
C3015      C3022   1.444       .  S
C3016      C3017   1.404       .  A
C3017      C3018   1.398       .  A
C3017      H3020   1.085       .  S
C3018      C3021   1.445       .  S
C3021      N3023   1.157       .  T
C3022      N3024   1.157       .  T
C3025      C3026   1.406       .  A
C3025      C3030   1.416       .  A
C3026      C3027   1.402       .  A
C3026      H3031   1.085       .  S
C3027      C3028   1.414       .  A
C3027      C3034   1.444       .  S
C3028      C3029   1.405       .  A
C3029      C3030   1.400       .  A
C3029      H3032   1.085       .  S
C3030      C3033   1.445       .  S
C3033      N3035   1.158       .  T
C3034      N3036   1.157       .  T
C3037      C3038   1.406       .  A
C3037      C3042   1.414       .  A
C3038      C3039   1.403       .  A
C3038      H3043   1.085       .  S
C3039      C3040   1.414       .  A
C3039      C3046   1.444       .  S
C3040      C3041   1.403       .  A
C3041      C3042   1.397       .  A
C3041      H3044   1.085       .  S
C3042      C3045   1.445       .  S
C3045      N3047   1.157       .  T
C3046      N3048   1.157       .  T
C3049      C3050   1.407       .  A
C3049      C3054   1.415       .  A
C3050      C3051   1.402       .  A
C3050      H3055   1.085       .  S
C3051      C3052   1.415       .  A
C3051      C3058   1.444       .  S
C3052      C3053   1.405       .  A
C3053      C3054   1.397       .  A
C3053      H3056   1.085       .  S
C3054      C3057   1.444       .  S
C3057      N3059   1.157       .  T
C3058      N3060   1.157       .  T
C3061      C3062   1.407       .  A
C3061      C3066   1.415       .  A
C3062      C3063   1.402       .  A
C3062      H3067   1.085       .  S
C3063      C3064   1.415       .  A
C3063      C3070   1.445       .  S
C3064      C3065   1.405       .  A
C3065      C3066   1.400       .  A
C3065      H3068   1.085       .  S
C3066      C3069   1.444       .  S
C3069      N3071   1.157       .  T
C3070      N3072   1.158       .  T
C3073      C3074   1.408       .  A
C3073      C3078   1.415       .  A
C3074      C3075   1.407       .  A
C3074      H3079   1.084       .  S
C3075      C3076   1.416       .  A
C3075      C3082   1.444       .  S
C3076      C3077   1.404       .  A
C3077      C3078   1.397       .  A
C3077      H3080   1.085       .  S
C3078      C3081   1.444       .  S
C3081      N3083   1.157       .  T
C3082      N3084   1.158       .  T
C3085      C3086   1.403       .  A
C3085      C3090   1.413       .  A
C3086      C3087   1.400       .  A
C3086      H3091   1.085       .  S
C3087      C3088   1.414       .  A
C3087      C3094   1.444       .  S
C3088      C3089   1.405       .  A
C3089      C3090   1.399       .  A
C3089      H3092   1.085       .  S
C3090      C3093   1.445       .  S
C3093      N3095   1.158       .  T
C3094      N3096   1.157       .  T
C3097      C3098   1.405       .  A
C3097      C3102   1.414       .  A
C3098      C3099   1.401       .  A
C3098      H3103   1.085       .  S
C3099      C3100   1.414       .  A
C3099      C3106   1.444       .  S
C3100      C3101   1.404       .  A
C3101      C3102   1.397       .  A
C3101      H3104   1.085       .  S
C3102      C3105   1.445       .  S
C3105      N3107   1.157       .  T
C3106      N3108   1.157       .  T
C3109      C3110   1.405       .  A
C3109      C3114   1.415       .  A
C3110      C3111   1.403       .  A
C3110      H3115   1.085       .  S
C3111      C3112   1.416       .  A
C3111      C3118   1.444       .  S
C3112      C3113   1.406       .  A
C3113      C3114   1.403       .  A
C3113      H3116   1.085       .  S
C3114      C3117   1.445       .  S
C3117      N3119   1.157       .  T
C3118      N3120   1.157       .  T
C3121      C3122   1.406       .  A
C3121      C3126   1.414       .  A
C3122      C3123   1.404       .  A
C3122      H3127   1.085       .  S
C3123      C3124   1.416       .  A
C3123      C3130   1.444       .  S
C3124      C3125   1.406       .  A
C3125      C3126   1.400       .  A
C3125      H3128   1.085       .  S
C3126      C3129   1.444       .  S
C3129      N3131   1.157       .  T
C3130      N3132   1.157       .  T
C3133      C3134   1.405       .  A
C3133      C3138   1.416       .  A
C3134      C3135   1.399       .  A
C3134      H3139   1.085       .  S
C3135      C3136   1.414       .  A
C3135      C3142   1.444       .  S
C3136      C3137   1.407       .  A
C3137      C3138   1.406       .  A
C3137      H3140   1.085       .  S
C3138      C3141   1.443       .  S
C3141      N3143   1.157       .  T
C3142      N3144   1.157       .  T
C3145      C3146   1.404       .  A
C3145      C3150   1.415       .  A
C3146      C3147   1.397       .  A
C3146      H3151   1.085       .  S
C3147      C3148   1.415       .  A
C3147      C3154   1.445       .  S
C3148      C3149   1.406       .  A
C3149      C3150   1.403       .  A
C3149      H3152   1.085       .  S
C3150      C3153   1.444       .  S
C3153      N3155   1.157       .  T
C3154      N3156   1.157       .  T
C3157      C3158   1.406       .  A
C3157      C3162   1.416       .  A
C3158      C3159   1.403   1_545  A
C3158      H3163   1.085       .  S
C3159      C3160   1.414       .  A
C3159      C3166   1.444       .  S
C3160      C3161   1.404       .  A
C3161      C3162   1.398   1_565  A
C3161      H3164   1.085       .  S
C3162      C3165   1.445       .  S
C3165      N3167   1.157       .  T
C3166      N3168   1.157       .  T
C3169      C3170   1.406       .  A
C3169      C3174   1.416       .  A
C3170      C3171   1.402       .  A
C3170      H3175   1.085       .  S
C3171      C3172   1.413       .  A
C3171      C3178   1.444       .  S
C3172      C3173   1.404       .  A
C3173      C3174   1.399       .  A
C3173      H3176   1.085       .  S
C3174      C3177   1.445       .  S
C3177      N3179   1.157       .  T
C3178      N3180   1.157       .  T
C3181      C3182   1.406       .  A
C3181      C3186   1.415       .  A
C3182      C3183   1.403       .  A
C3182      H3187   1.085       .  S
C3183      C3184   1.414       .  A
C3183      C3190   1.444       .  S
C3184      C3185   1.402       .  A
C3185      C3186   1.396       .  A
C3185      H3188   1.085       .  S
C3186      C3189   1.445       .  S
C3189      N3191   1.157       .  T
C3190      N3192   1.158       .  T
C3193      C3194   1.405       .  A
C3193      C3198   1.414       .  A
C3194      C3195   1.401   1_565  A
C3194      H3199   1.085       .  S
C3195      C3196   1.415       .  A
C3195      C3202   1.444       .  S
C3196      C3197   1.405       .  A
C3197      C3198   1.399   1_545  A
C3197      H3200   1.085       .  S
C3198      C3201   1.445       .  S
C3201      N3203   1.157       .  T
C3202      N3204   1.157       .  T
C3205      C3206   1.405       .  A
C3205      C3210   1.415       .  A
C3206      C3207   1.401       .  A
C3206      H3211   1.085       .  S
C3207      C3208   1.415       .  A
C3207      C3214   1.444       .  S
C3208      C3209   1.407       .  A
C3209      C3210   1.403       .  A
C3209      H3212   1.085       .  S
C3210      C3213   1.444       .  S
C3213      N3215   1.157       .  T
C3214      N3216   1.157       .  T
C3217      C3218   1.405       .  A
C3217      C3222   1.414       .  A
C3218      C3219   1.399       .  A
C3218      H3223   1.085       .  S
C3219      C3220   1.414       .  A
C3219      C3226   1.445       .  S
C3220      C3221   1.404       .  A
C3221      C3222   1.401       .  A
C3221      H3224   1.085       .  S
C3222      C3225   1.444       .  S
C3225      N3227   1.157       .  T
C3226      N3228   1.158       .  T
C3229      C3230   1.403       .  A
C3229      C3234   1.414       .  A
C3230      C3231   1.401       .  A
C3230      H3235   1.085       .  S
C3231      C3232   1.415       .  A
C3231      C3238   1.444       .  S
C3232      C3233   1.405       .  A
C3233      C3234   1.399       .  A
C3233      H3236   1.085       .  S
C3234      C3237   1.445       .  S
C3237      N3239   1.157       .  T
C3238      N3240   1.157       .  T
C3241      C3242   1.406       .  A
C3241      C3246   1.416       .  A
C3242      C3243   1.404   1_545  A
C3242      H3247   1.085       .  S
C3243      C3244   1.417       .  A
C3243      C3250   1.444       .  S
C3244      C3245   1.407       .  A
C3245      C3246   1.404   1_565  A
C3245      H3248   1.085       .  S
C3246      C3249   1.444       .  S
C3249      N3251   1.157       .  T
C3250      N3252   1.157       .  T
C3253      C3254   1.405       .  A
C3253      C3258   1.416       .  A
C3254      C3255   1.401       .  A
C3254      H3259   1.085       .  S
C3255      C3256   1.416       .  A
C3255      C3262   1.444       .  S
C3256      C3257   1.405       .  A
C3257      C3258   1.402       .  A
C3257      H3260   1.085       .  S
C3258      C3261   1.444       .  S
C3261      N3263   1.157       .  T
C3262      N3264   1.157       .  T
C3265      C3266   1.408       .  A
C3265      C3270   1.416       .  A
C3266      C3267   1.404       .  A
C3266      H3271   1.085       .  S
C3267      C3268   1.415       .  A
C3267      C3274   1.445       .  S
C3268      C3269   1.404       .  A
C3269      C3270   1.401       .  A
C3269      H3272   1.085       .  S
C3270      C3273   1.444       .  S
C3273      N3275   1.157       .  T
C3274      N3276   1.158       .  T
C3277      C3278   1.405       .  A
C3277      C3282   1.416       .  A
C3278      C3279   1.401       .  A
C3278      H3283   1.085       .  S
C3279      C3280   1.414       .  A
C3279      C3286   1.444       .  S
C3280      C3281   1.404       .  A
C3281      C3282   1.399       .  A
C3281      H3284   1.085       .  S
C3282      C3285   1.445       .  S
C3285      N3287   1.158       .  T
C3286      N3288   1.157       .  T
C3289      C3290   1.405       .  A
C3289      C3294   1.416       .  A
C3290      C3291   1.402   1_655  A
C3290      H3295   1.085       .  S
C3291      C3292   1.415       .  A
C3291      C3298   1.444       .  S
C3292      C3293   1.404       .  A
C3293      C3294   1.399   1_455  A
C3293      H3296   1.085       .  S
C3294      C3297   1.444       .  S
C3297      N3299   1.157       .  T
C3298      N3300   1.157       .  T
C3301      C3302   1.406       .  A
C3301      C3306   1.415       .  A
C3302      C3303   1.403       .  A
C3302      H3307   1.084       .  S
C3303      C3304   1.414       .  A
C3303      C3310   1.444       .  S
C3304      C3305   1.404       .  A
C3305      C3306   1.397       .  A
C3305      H3308   1.085       .  S
C3306      C3309   1.445       .  S
C3309      N3311   1.157       .  T
C3310      N3312   1.157       .  T
C3313      C3314   1.404       .  A
C3313      C3318   1.416       .  A
C3314      C3315   1.397       .  A
C3314      H3319   1.085       .  S
C3315      C3316   1.415       .  A
C3315      C3322   1.444       .  S
C3316      C3317   1.407       .  A
C3317      C3318   1.404       .  A
C3317      H3320   1.085       .  S
C3318      C3321   1.444       .  S
C3321      N3323   1.158       .  T
C3322      N3324   1.157       .  T
C3325      C3326   1.404       .  A
C3325      C3330   1.415       .  A
C3326      C3327   1.400       .  A
C3326      H3331   1.085       .  S
C3327      C3328   1.416       .  A
C3327      C3334   1.445       .  S
C3328      C3329   1.405       .  A
C3329      C3330   1.400       .  A
C3329      H3332   1.085       .  S
C3330      C3333   1.444       .  S
C3333      N3335   1.157       .  T
C3334      N3336   1.157       .  T
C3337      C3338   1.407       .  A
C3337      C3342   1.416       .  A
C3338      C3339   1.405       .  A
C3338      H3343   1.085       .  S
C3339      C3340   1.416       .  A
C3339      C3346   1.444       .  S
C3340      C3341   1.405       .  A
C3341      C3342   1.399       .  A
C3341      H3344   1.085       .  S
C3342      C3345   1.444       .  S
C3345      N3347   1.157       .  T
C3346      N3348   1.157       .  T
C3349      C3350   1.404       .  A
C3349      C3354   1.417       .  A
C3350      C3351   1.399   1_556  A
C3350      H3355   1.085       .  S
C3351      C3352   1.416       .  A
C3351      C3358   1.444       .  S
C3352      C3353   1.406       .  A
C3353      C3354   1.403   1_554  A
C3353      H3356   1.085       .  S
C3354      C3357   1.445       .  S
C3357      N3359   1.158       .  T
C3358      N3360   1.157       .  T
C3361      C3362   1.405       .  A
C3361      C3366   1.415       .  A
C3362      C3363   1.401       .  A
C3362      H3367   1.085       .  S
C3363      C3364   1.415       .  A
C3363      C3370   1.444       .  S
C3364      C3365   1.405       .  A
C3365      C3366   1.403       .  A
C3365      H3368   1.085       .  S
C3366      C3369   1.444       .  S
C3369      N3371   1.157       .  T
C3370      N3372   1.157       .  T
C3373      C3374   1.405       .  A
C3373      C3378   1.416       .  A
C3374      C3375   1.401       .  A
C3374      H3379   1.085       .  S
C3375      C3376   1.417       .  A
C3375      C3382   1.445       .  S
C3376      C3377   1.405       .  A
C3377      C3378   1.403       .  A
C3377      H3380   1.085       .  S
C3378      C3381   1.444       .  S
C3381      N3383   1.157       .  T
C3382      N3384   1.158       .  T
C3385      C3386   1.406       .  A
C3385      C3390   1.415       .  A
C3386      C3387   1.402       .  A
C3386      H3391   1.085       .  S
C3387      C3388   1.415       .  A
C3387      C3394   1.445       .  S
C3388      C3389   1.404       .  A
C3389      C3390   1.400       .  A
C3389      H3392   1.085       .  S
C3390      C3393   1.443       .  S
C3393      N3395   1.157       .  T
C3394      N3396   1.158       .  T
C3397      C3398   1.407       .  A
C3397      C3402   1.414       .  A
C3398      C3399   1.401       .  A
C3398      H3403   1.085       .  S
C3399      C3400   1.414       .  A
C3399      C3406   1.445       .  S
C3400      C3401   1.405       .  A
C3401      C3402   1.399       .  A
C3401      H3404   1.085       .  S
C3402      C3405   1.444       .  S
C3405      N3407   1.157       .  T
C3406      N3408   1.158       .  T
C3409      C3410   1.404       .  A
C3409      C3414   1.416       .  A
C3410      C3411   1.398       .  A
C3410      H3415   1.085       .  S
C3411      C3412   1.416       .  A
C3411      C3418   1.445       .  S
C3412      C3413   1.404       .  A
C3413      C3414   1.401       .  A
C3413      H3416   1.085       .  S
C3414      C3417   1.444       .  S
C3417      N3419   1.157       .  T
C3418      N3420   1.157       .  T
C3421      C3422   1.405       .  A
C3421      C3426   1.415       .  A
C3422      C3423   1.401   1_556  A
C3422      H3427   1.084       .  S
C3423      C3424   1.414       .  A
C3423      C3430   1.444       .  S
C3424      C3425   1.405       .  A
C3425      C3426   1.400   1_554  A
C3425      H3428   1.085       .  S
C3426      C3429   1.444       .  S
C3429      N3431   1.157       .  T
C3430      N3432   1.157       .  T
C3433      C3434   1.404       .  A
C3433      C3438   1.415       .  A
C3434      C3435   1.401       .  A
C3434      H3439   1.085       .  S
C3435      C3436   1.417       .  A
C3435      C3442   1.444       .  S
C3436      C3437   1.406       .  A
C3437      C3438   1.403       .  A
C3437      H3440   1.085       .  S
C3438      C3441   1.444       .  S
C3441      N3443   1.157       .  T
C3442      N3444   1.157       .  T
C3445      C3446   1.406       .  A
C3445      C3450   1.413       .  A
C3446      C3447   1.406       .  A
C3446      H3451   1.085       .  S
C3447      C3448   1.418       .  A
C3447      C3454   1.444       .  S
C3448      C3449   1.405       .  A
C3449      C3450   1.401       .  A
C3449      H3452   1.085       .  S
C3450      C3453   1.444       .  S
C3453      N3455   1.157       .  T
C3454      N3456   1.158       .  T
C3457      C3458   1.406       .  A
C3457      C3462   1.416       .  A
C3458      C3459   1.404       .  A
C3458      H3463   1.084       .  S
C3459      C3460   1.416       .  A
C3459      C3466   1.444       .  S
C3460      C3461   1.405       .  A
C3461      C3462   1.399       .  A
C3461      H3464   1.085       .  S
C3462      C3465   1.445       .  S
C3465      N3467   1.157       .  T
C3466      N3468   1.157       .  T
C3469      C3470   1.405       .  A
C3469      C3474   1.414       .  A
C3470      C3471   1.399       .  A
C3470      H3475   1.085       .  S
C3471      C3472   1.414       .  A
C3471      C3478   1.445       .  S
C3472      C3473   1.405       .  A
C3473      C3474   1.400       .  A
C3473      H3476   1.085       .  S
C3474      C3477   1.444       .  S
C3477      N3479   1.157       .  T
C3478      N3480   1.157       .  T
C3481      C3482   1.406       .  A
C3481      C3486   1.416       .  A
C3482      C3483   1.401   1_655  A
C3482      H3487   1.085       .  S
C3483      C3484   1.413       .  A
C3483      C3490   1.444       .  S
C3484      C3485   1.404       .  A
C3485      C3486   1.399   1_455  A
C3485      H3488   1.085       .  S
C3486      C3489   1.444       .  S
C3489      N3491   1.157       .  T
C3490      N3492   1.157       .  T
C3493      C3494   1.407       .  A
C3493      C3498   1.414       .  A
C3494      C3495   1.403       .  A
C3494      H3499   1.085       .  S
C3495      C3496   1.415       .  A
C3495      C3502   1.445       .  S
C3496      C3497   1.404       .  A
C3497      C3498   1.397       .  A
C3497      H3500   1.085       .  S
C3498      C3501   1.444       .  S
C3501      N3503   1.157       .  T
C3502      N3504   1.158       .  T
C3505      C3506   1.405       .  A
C3505      C3510   1.415       .  A
C3506      C3507   1.402       .  A
C3506      H3511   1.085       .  S
C3507      C3508   1.414       .  A
C3507      C3514   1.444       .  S
C3508      C3509   1.405       .  A
C3509      C3510   1.401       .  A
C3509      H3512   1.085       .  S
C3510      C3513   1.445       .  S
C3513      N3515   1.158       .  T
C3514      N3516   1.157       .  T
C3517      C3518   1.407       .  A
C3517      C3522   1.415       .  A
C3518      C3519   1.405       .  A
C3518      H3523   1.085       .  S
C3519      C3520   1.415       .  A
C3519      C3526   1.444       .  S
C3520      C3521   1.405       .  A
C3521      C3522   1.401       .  A
C3521      H3524   1.085       .  S
C3522      C3525   1.444       .  S
C3525      N3527   1.157       .  T
C3526      N3528   1.157       .  T
C3529      C3530   1.406       .  A
C3529      C3534   1.415       .  A
C3530      C3531   1.402       .  A
C3530      H3535   1.085       .  S
C3531      C3532   1.414       .  A
C3531      C3538   1.445       .  S
C3532      C3533   1.404       .  A
C3533      C3534   1.399       .  A
C3533      H3536   1.085       .  S
C3534      C3537   1.444       .  S
C3537      N3539   1.157       .  T
C3538      N3540   1.157       .  T
C3541      C3542   1.405       .  A
C3541      C3546   1.417       .  A
C3542      C3543   1.402       .  A
C3542      H3547   1.085       .  S
C3543      C3544   1.415       .  A
C3543      C3550   1.444       .  S
C3544      C3545   1.405       .  A
C3545      C3546   1.403       .  A
C3545      H3548   1.085       .  S
C3546      C3549   1.445       .  S
C3549      N3551   1.158       .  T
C3550      N3552   1.157       .  T
